data/inputs/nesta_case240_wecc.m
%%%%%%%%%%%%%%%%%%%%%%%%%%%%%%%%%%%%%%%%%%%%%%%%%%%%%%%%%%%%%%%%%%%%%%%%%%%
%%%%                                                                  %%%%%
%%%%      NICTA Energy System Test Case Archive (NESTA) - v0.7.0      %%%%%
%%%%              Optimal Power Flow - Typical Operation              %%%%%
%%%%                         05 - June - 2017                         %%%%%
%%%%                                                                  %%%%%
%%%%%%%%%%%%%%%%%%%%%%%%%%%%%%%%%%%%%%%%%%%%%%%%%%%%%%%%%%%%%%%%%%%%%%%%%%%
%
%   This case was prepared as part of PSERC M-21, "Technical and Economic 
%   Implications of Greenhouse Gas Regulation in a Transmission Constrained 
%   Restructured Electricity Market", which is available at https://pserc.wisc.edu
%   This dataset only includes the network model, the original report has a
%   variety of additional data, which are discussed in the following technical
%   report, 
%
%   Price, J. & Goodin, J.
%   "Reduced Network Modeling of WECC as a Market Design Prototype"
%   Power and Energy Society General Meeting
%   Detroit, MI, July, 2011
%

function mpc = nesta_case240_wecc
mpc.version = '2';
mpc.baseMVA = 100.0;

%% bus data
%	bus_i	type	Pd	Qd	Gs	Bs	area	Vm	Va	baseKV	zone	Vmax	Vmin
mpc.bus = [
	1001	 1	 0.0	 0.0	 0.0	 0.0	 10	    1.03520	   -0.28869	 500.0	 1	    1.10000	    0.90000;
	1002	 1	 226.8419	 -37.472	 0.0	 0.0	 10	    1.01161	    1.89168	 345.0	 1	    1.10000	    0.90000;
	1003	 1	 2153.3224	 366.856	 0.0	 0.0	 10	    0.97062	   -6.81254	 230.0	 1	    1.10000	    0.90000;
	1004	 1	 1037.9499	 5.521	 0.0	 0.0	 10	    0.96268	   12.40306	 345.0	 1	    1.10000	    0.90000;
	1032	 2	 0.0	 0.0	 0.0	 0.0	 10	    1.01833	    2.66314	 20.0	 1	    1.10000	    0.90000;
	1034	 2	 0.0	 0.0	 0.0	 0.0	 10	    0.95740	   13.82897	 20.0	 1	    1.10000	    0.90000;
	1101	 1	 4527.3661	 -137.044	 0.0	 0.0	 10	    1.09380	  -23.67787	 500.0	 1	    1.10000	    0.90000;
	1102	 1	 176.4436	 23.004	 0.0	 0.0	 10	    1.03369	  -13.95236	 345.0	 1	    1.10000	    0.90000;
	1131	 2	 0.0	 0.0	 0.0	 0.0	 10	    1.10000	  -23.55438	 20.0	 1	    1.10000	    0.90000;
	1201	 1	 166.9882	 -2.012	 0.0	 0.0	 10	    1.10000	  -10.03399	 500.0	 1	    1.10000	    0.90000;
	1202	 1	 875.61	 287.131	 0.0	 0.0	 10	    1.09237	   -6.88143	 500.0	 1	    1.10000	    0.90000;
	1232	 2	 0.0	 0.0	 0.0	 0.0	 10	    1.09112	   -6.12980	 20.0	 1	    1.10000	    0.90000;
	1301	 1	 2704.7793	 352.826	 0.0	 0.0	 10	    1.03341	  -11.17488	 500.0	 1	    1.10000	    0.90000;
	1302	 1	 17.5556	 2.304	 0.0	 0.0	 10	    1.08556	  -10.00532	 500.0	 1	    1.10000	    0.90000;
	1303	 1	 6235.136	 813.349	 0.0	 0.0	 10	    1.09533	  -10.50877	 345.0	 1	    1.10000	    0.90000;
	1331	 2	 0.0	 0.0	 0.0	 0.0	 10	    1.03091	  -10.06692	 20.0	 1	    1.10000	    0.90000;
	1333	 2	 0.0	 0.0	 0.0	 0.0	 10	    1.10000	   -9.05917	 20.0	 1	    1.10000	    0.90000;
	1401	 1	 6535.5365	 1524.594	 0.0	 0.0	 10	    1.07345	  -16.15273	 500.0	 1	    1.10000	    0.90000;
	1402	 1	 5366.6305	 -600.162	 0.0	 0.0	 10	    1.08433	  -21.79039	 500.0	 1	    1.10000	    0.90000;
	1403	 1	 0.0	 0.0	 0.0	 0.0	 10	    1.07056	  -16.86388	 230.0	 1	    1.10000	    0.90000;
	1431	 2	 0.0	 0.0	 0.0	 0.0	 10	    1.07849	  -13.37231	 20.0	 1	    1.10000	    0.90000;
	2000	 1	 2207.188	 287.916	 0.0	 0.0	 20	    0.92045	  -14.78453	 230.0	 1	    1.10000	    0.90000;
	2030	 2	 0.0	 0.0	 0.0	 0.0	 20	    0.92129	  -13.82872	 20.0	 1	    1.10000	    0.90000;
	2100	 1	 281.1513	 54.83	 0.0	 0.0	 21	    1.04551	  -20.47757	 230.0	 1	    1.10000	    0.90000;
	2130	 2	 0.0	 0.0	 0.0	 0.0	 21	    1.04656	  -20.24009	 20.0	 1	    1.10000	    0.90000;
	2201	 1	 0.0	 0.0	 0.0	 0.0	 22	    0.92862	  -34.41860	 500.0	 1	    1.10000	    0.90000;
	2202	 1	 1545.949	 268.565	 0.0	 0.0	 22	    0.92099	  -36.30766	 230.0	 1	    1.10000	    0.90000;
	2203	 1	 1708.5525	 278.273	 0.0	 0.0	 22	    0.94617	  -39.82153	 230.0	 1	    1.10000	    0.90000;
	2233	 2	 0.0	 0.0	 0.0	 0.0	 22	    0.95079	  -39.62268	 20.0	 1	    1.10000	    0.90000;
	2301	 1	 0.0	 0.0	 0.0	 0.0	 22	    1.05170	  -17.70371	 500.0	 1	    1.10000	    0.90000;
	2302	 1	 0.0	 0.0	 0.0	 0.0	 22	    1.05888	  -16.35784	 230.0	 1	    1.10000	    0.90000;
	2332	 2	 0.0	 0.0	 0.0	 0.0	 22	    1.06165	  -16.07293	 20.0	 1	    1.10000	    0.90000;
	2400	 1	 843.2926	 76.663	 0.0	 0.0	 24	    1.02234	  -26.68833	 500.0	 1	    1.10000	    0.90000;
	2401	 1	 882.3636	 105.214	 0.0	 0.0	 24	    1.02437	  -19.94818	 500.0	 1	    1.10000	    0.90000;
	2402	 1	 1080.0201	 81.979	 0.0	 0.0	 24	    0.99267	  -25.75356	 500.0	 1	    1.10000	    0.90000;
	2403	 1	 1050.004	 38.543	 0.0	 0.0	 24	    1.00058	  -30.07161	 500.0	 1	    1.10000	    0.90000;
	2404	 1	 0.0	 0.0	 0.0	 0.0	 24	    1.03958	  -14.74902	 500.0	 1	    1.10000	    0.90000;
	2405	 1	 824.6826	 22.901	 0.0	 0.0	 24	    0.99928	  -14.68793	 230.0	 1	    1.10000	    0.90000;
	2406	 1	 737.4036	 -40.751	 0.0	 0.0	 24	    0.98252	  -18.37526	 230.0	 1	    1.10000	    0.90000;
	2407	 1	 1732.771	 -36.535	 0.0	 0.0	 24	    0.92520	  -24.46201	 230.0	 1	    1.10000	    0.90000;
	2408	 1	 1743.2768	 -72.623	 0.0	 0.0	 24	    0.97023	  -10.24320	 230.0	 1	    1.10000	    0.90000;
	2409	 1	 1601.7777	 -86.698	 0.0	 0.0	 24	    0.97503	  -28.23778	 230.0	 1	    1.10000	    0.90000;
	2410	 1	 1576.7872	 58.184	 0.0	 0.0	 24	    0.99673	  -19.21053	 230.0	 1	    1.10000	    0.90000;
	2411	 1	 1087.6239	 75.955	 0.0	 0.0	 24	    1.02437	  -16.91532	 230.0	 1	    1.10000	    0.90000;
	2438	 2	 0.0	 0.0	 0.0	 0.0	 24	    0.97235	   -8.27252	 20.0	 1	    1.10000	    0.90000;
	2501	 1	 0.0	 0.0	 0.0	 0.0	 25	    0.98238	  -27.99190	 500.0	 1	    1.10000	    0.90000;
	2502	 1	 2369.1531	 -91.905	 0.0	 0.0	 25	    0.97164	  -29.56807	 230.0	 1	    1.10000	    0.90000;
	2503	 1	 1845.9256	 201.991	 0.0	 0.0	 25	    0.90415	  -32.25045	 230.0	 1	    1.10000	    0.90000;
	2533	 2	 0.0	 0.0	 0.0	 0.0	 25	    0.90000	  -31.46464	 20.0	 1	    1.10000	    0.90000;
	2600	 1	 -1863.9044	 0.0	 0.0	 0.0	 90	    1.03787	  -13.86138	 500.0	 1	    1.10000	    0.90000;
	2601	 1	 0.0	 0.0	 0.0	 0.0	 26	    1.03243	  -13.97070	 500.0	 1	    1.10000	    0.90000;
	2602	 1	 99.2784	 12.955	 0.0	 0.0	 26	    1.02066	  -13.23659	 500.0	 1	    1.10000	    0.90000;
	2603	 1	 0.0	 0.0	 0.0	 0.0	 26	    1.03788	  -14.67143	 500.0	 1	    1.10000	    0.90000;
	2604	 1	 2050.7816	 0.0	 0.0	 0.0	 90	    1.07704	  -16.98415	 345.0	 1	    1.10000	    0.90000;
	2605	 1	 0.0	 0.0	 0.0	 0.0	 26	    1.04354	  -10.58434	 287.0	 1	    1.10000	    0.90000;
	2606	 1	 0.0	 0.0	 0.0	 0.0	 26	    1.04354	  -10.58434	 287.0	 1	    1.10000	    0.90000;
	2607	 1	 0.0	 0.0	 0.0	 0.0	 26	    1.04281	  -13.16711	 287.0	 1	    1.10000	    0.90000;
	2608	 1	 99.2784	 12.955	 0.0	 0.0	 26	    1.00529	  -10.43716	 230.0	 1	    1.10000	    0.90000;
	2609	 1	 134.0261	 26.805	 0.0	 0.0	 26	    1.01478	  -10.94540	 230.0	 1	    1.10000	    0.90000;
	2610	 1	 99.2784	 12.955	 0.0	 0.0	 26	    1.08791	    4.02141	 230.0	 1	    1.10000	    0.90000;
	2611	 1	 99.2784	 12.955	 0.0	 0.0	 26	    1.00128	  -13.36924	 230.0	 1	    1.10000	    0.90000;
	2612	 1	 120.1277	 24.819	 0.0	 0.0	 26	    1.00231	  -13.50874	 230.0	 1	    1.10000	    0.90000;
	2613	 1	 317.693	 64.532	 0.0	 0.0	 26	    1.03088	   -7.06153	 230.0	 1	    1.10000	    0.90000;
	2614	 1	 137.0047	 27.798	 0.0	 0.0	 26	    1.03373	   -8.81197	 230.0	 1	    1.10000	    0.90000;
	2615	 1	 801.9756	 131.148	 0.0	 0.0	 26	    1.01017	  -12.60235	 230.0	 1	    1.10000	    0.90000;
	2616	 1	 116.1565	 23.827	 0.0	 0.0	 26	    1.03183	   -7.43297	 230.0	 1	    1.10000	    0.90000;
	2617	 1	 120.1277	 24.819	 0.0	 0.0	 26	    1.02072	   -9.33724	 230.0	 1	    1.10000	    0.90000;
	2618	 1	 881.2994	 -6.155	 0.0	 0.0	 26	    0.99969	  -14.52054	 230.0	 1	    1.10000	    0.90000;
	2619	 1	 -2773.8339	 0.0	 0.0	 0.0	 90	    1.00074	  -13.11201	 230.0	 1	    1.10000	    0.90000;
	2620	 1	 203.7206	 17.473	 0.0	 0.0	 26	    1.00368	  -13.58521	 230.0	 1	    1.10000	    0.90000;
	2621	 1	 235.4897	 -62.745	 0.0	 0.0	 26	    1.04023	  -10.09439	 138.0	 1	    1.10000	    0.90000;
	2630	 2	 0.0	 0.0	 0.0	 0.0	 26	    1.09168	    4.67078	 20.0	 1	    1.10000	    0.90000;
	2631	 2	 0.0	 0.0	 0.0	 0.0	 26	    1.00119	  -13.36924	 20.0	 1	    1.10000	    0.90000;
	2634	 2	 0.0	 0.0	 0.0	 0.0	 90	    1.07928	  -16.51590	 20.0	 1	    1.10000	    0.90000;
	2637	 2	 0.0	 0.0	 0.0	 0.0	 26	    1.00176	  -13.50874	 20.0	 1	    1.10000	    0.90000;
	2638	 2	 0.0	 0.0	 0.0	 0.0	 26	    1.00539	  -10.24246	 20.0	 1	    1.10000	    0.90000;
	2901	 1	 0.0	 0.0	 0.0	 0.0	 24	    1.09501	  -14.37468	 500.0	 1	    1.10000	    0.90000;
	2902	 1	 0.0	 0.0	 0.0	 0.0	 24	    1.10000	  -16.12702	 500.0	 1	    1.10000	    0.90000;
	3101	 1	 341.3057	 52.828	 0.0	 0.0	 31	    1.07341	   -9.94352	 230.0	 1	    1.10000	    0.90000;
	3102	 1	 159.4648	 24.929	 0.0	 0.0	 31	    1.07814	   -8.88334	 230.0	 1	    1.10000	    0.90000;
	3103	 1	 419.6109	 59.777	 0.0	 0.0	 32	    1.09103	   -7.06767	 230.0	 1	    1.10000	    0.90000;
	3104	 1	 309.9718	 40.133	 0.0	 0.0	 31	    1.07476	  -11.17274	 115.0	 1	    1.10000	    0.90000;
	3105	 1	 239.3018	 49.091	 0.0	 0.0	 31	    1.08725	   -9.01957	 115.0	 1	    1.10000	    0.90000;
	3133	 2	 0.0	 0.0	 0.0	 0.0	 32	    1.09351	   -7.05756	 20.0	 1	    1.10000	    0.90000;
	3135	 2	 0.0	 0.0	 0.0	 0.0	 31	    1.08759	   -8.92388	 20.0	 1	    1.10000	    0.90000;
	3201	 1	 462.4769	 97.849	 0.0	 0.0	 32	    1.06270	   -7.36210	 230.0	 1	    1.10000	    0.90000;
	3202	 1	 586.1795	 83.473	 0.0	 0.0	 32	    1.06798	   -7.27416	 230.0	 1	    1.10000	    0.90000;
	3203	 1	 657.1046	 158.476	 0.0	 0.0	 32	    1.06905	   -6.81892	 230.0	 1	    1.10000	    0.90000;
	3204	 1	 668.7879	 95.313	 0.0	 0.0	 32	    1.09635	   -3.13642	 230.0	 1	    1.10000	    0.90000;
	3205	 1	 546.0609	 77.782	 0.0	 0.0	 32	    1.08016	   -6.56927	 230.0	 1	    1.10000	    0.90000;
	3234	 2	 0.0	 0.0	 0.0	 0.0	 32	    1.10000	   -2.15150	 20.0	 1	    1.10000	    0.90000;
	3301	 1	 0.0	 0.0	 0.0	 0.0	 32	    1.06167	   -8.22680	 500.0	 1	    1.10000	    0.90000;
	3302	 1	 345.3259	 85.791	 0.0	 0.0	 32	    1.05673	  -10.35386	 230.0	 1	    1.10000	    0.90000;
	3303	 1	 625.4106	 150.715	 0.0	 0.0	 32	    1.05657	   -8.62017	 230.0	 1	    1.10000	    0.90000;
	3304	 1	 533.4822	 122.616	 0.0	 0.0	 32	    1.05269	   -9.99940	 230.0	 1	    1.10000	    0.90000;
	3305	 1	 430.3196	 61.225	 0.0	 0.0	 32	    1.08118	   -7.03736	 230.0	 1	    1.10000	    0.90000;
	3333	 2	 0.0	 0.0	 0.0	 0.0	 32	    1.05703	   -8.38854	 20.0	 1	    1.10000	    0.90000;
	3401	 1	 557.7071	 135.909	 0.0	 0.0	 34	    1.04734	   -4.74186	 230.0	 1	    1.10000	    0.90000;
	3402	 1	 0.0	 0.0	 0.0	 0.0	 34	    1.09850	    3.77377	 230.0	 1	    1.10000	    0.90000;
	3403	 1	 515.9687	 73.583	 0.0	 0.0	 34	    1.09789	   10.20616	 230.0	 1	    1.10000	    0.90000;
	3404	 1	 438.461	 62.075	 0.0	 0.0	 34	    1.04422	   -5.00333	 230.0	 1	    1.10000	    0.90000;
	3405	 1	 448.8976	 63.723	 0.0	 0.0	 34	    1.03053	  -10.18515	 230.0	 1	    1.10000	    0.90000;
	3432	 2	 0.0	 0.0	 0.0	 0.0	 34	    1.10000	    4.06254	 20.0	 1	    1.10000	    0.90000;
	3433	 2	 0.0	 0.0	 0.0	 0.0	 34	    1.10000	   10.80890	 20.0	 1	    1.10000	    0.90000;
	3501	 1	 625.0164	 89.015	 0.0	 0.0	 35	    1.09886	  -10.06165	 230.0	 1	    1.10000	    0.90000;
	3531	 2	 0.0	 0.0	 0.0	 0.0	 35	    1.10000	   -9.91544	 20.0	 1	    1.10000	    0.90000;
	3601	 1	 104.8564	 14.844	 0.0	 0.0	 36	    1.09976	  -11.02810	 115.0	 1	    1.10000	    0.90000;
	3631	 2	 0.0	 0.0	 0.0	 0.0	 36	    1.10000	  -10.99424	 20.0	 1	    1.10000	    0.90000;
	3701	 1	 317.0506	 15.847	 0.0	 0.0	 37	    0.95827	  -31.46439	 115.0	 1	    1.10000	    0.90000;
	3731	 2	 0.0	 0.0	 0.0	 0.0	 37	    0.95931	  -31.38492	 20.0	 1	    1.10000	    0.90000;
	3801	 1	 191.2229	 47.411	 0.0	 0.0	 38	    1.09590	   -3.44910	 500.0	 1	    1.10000	    0.90000;
	3802	 1	 0.0	 0.0	 0.0	 0.0	 38	    1.06576	   -9.10885	 500.0	 1	    1.10000	    0.90000;
	3803	 1	 0.0	 0.0	 0.0	 0.0	 38	    1.06135	  -10.96205	 500.0	 1	    1.10000	    0.90000;
	3804	 1	 223.6404	 55.318	 0.0	 0.0	 38	    1.05586	   -3.32679	 230.0	 1	    1.10000	    0.90000;
	3805	 1	 499.3888	 163.106	 0.0	 0.0	 38	    1.04274	   -6.05368	 230.0	 1	    1.10000	    0.90000;
	3806	 1	 289.5858	 41.366	 0.0	 0.0	 38	    1.09840	    0.31902	 230.0	 1	    1.10000	    0.90000;
	3831	 2	 0.0	 0.0	 0.0	 0.0	 38	    1.09762	   -2.90919	 20.0	 1	    1.10000	    0.90000;
	3835	 2	 0.0	 0.0	 0.0	 0.0	 38	    1.04175	   -5.68948	 20.0	 1	    1.10000	    0.90000;
	3836	 2	 0.0	 0.0	 0.0	 0.0	 38	    1.10000	    0.56110	 20.0	 1	    1.10000	    0.90000;
	3891	 1	 0.0	 0.0	 0.0	 0.0	 38	    1.04864	  -14.10134	 500.0	 1	    1.10000	    0.90000;
	3892	 1	 0.0	 0.0	 0.0	 0.0	 38	    1.06971	   -6.64766	 500.0	 1	    1.10000	    0.90000;
	3893	 1	 0.0	 0.0	 0.0	 0.0	 38	    1.02350	  -19.30470	 500.0	 1	    1.10000	    0.90000;
	3894	 1	 0.0	 0.0	 0.0	 0.0	 38	    1.06977	   -6.57573	 500.0	 1	    1.10000	    0.90000;
	3895	 1	 0.0	 0.0	 0.0	 0.0	 38	    1.02366	  -19.33563	 500.0	 1	    1.10000	    0.90000;
	3896	 1	 0.0	 0.0	 0.0	 0.0	 38	    1.07118	   -6.36823	 500.0	 1	    1.10000	    0.90000;
	3897	 1	 0.0	 0.0	 0.0	 0.0	 38	    1.02585	  -19.10351	 500.0	 1	    1.10000	    0.90000;
	3901	 1	 0.0	 0.0	 0.0	 0.0	 39	    1.06154	  -15.50249	 500.0	 1	    1.10000	    0.90000;
	3902	 1	 152.9913	 38.248	 0.0	 0.0	 39	    1.02826	  -11.67790	 500.0	 1	    1.10000	    0.90000;
	3903	 1	 213.2478	 30.269	 0.0	 0.0	 39	    1.03723	  -10.79064	 500.0	 1	    1.10000	    0.90000;
	3904	 1	 0.0	 0.0	 0.0	 0.0	 39	    0.99979	  -10.33867	 500.0	 1	    1.10000	    0.90000;
	3905	 1	 0.0	 0.0	 0.0	 0.0	 39	    0.99115	  -12.00712	 500.0	 1	    1.10000	    0.90000;
	3906	 1	 0.0	 0.0	 0.0	 0.0	 39	    0.98044	  -11.52074	 500.0	 1	    1.10000	    0.90000;
	3907	 1	 461.3573	 63.071	 0.0	 0.0	 39	    1.03029	  -12.24147	 230.0	 1	    1.10000	    0.90000;
	3908	 1	 200.2788	 24.716	 0.0	 0.0	 39	    0.99522	  -18.48194	 230.0	 1	    1.10000	    0.90000;
	3909	 1	 170.957	 39.785	 0.0	 0.0	 39	    0.96374	  -23.74403	 230.0	 1	    1.10000	    0.90000;
	3910	 1	 241.8392	 34.44	 0.0	 0.0	 39	    1.01219	  -18.43798	 230.0	 1	    1.10000	    0.90000;
	3911	 1	 233.1345	 47.114	 0.0	 0.0	 39	    1.07034	  -12.02019	 230.0	 1	    1.10000	    0.90000;
	3912	 1	 174.5029	 -0.634	 0.0	 0.0	 39	    1.05430	  -16.96774	 230.0	 1	    1.10000	    0.90000;
	3913	 1	 329.5484	 43.435	 0.0	 0.0	 39	    1.00503	  -16.54494	 230.0	 1	    1.10000	    0.90000;
	3914	 1	 227.7536	 52.549	 0.0	 0.0	 39	    1.08067	   -9.90431	 230.0	 1	    1.10000	    0.90000;
	3915	 1	 254.4589	 53.402	 0.0	 0.0	 39	    1.07021	   -9.83377	 230.0	 1	    1.10000	    0.90000;
	3916	 1	 155.0024	 0.0	 0.0	 0.0	 39	    1.05342	  -16.27819	 230.0	 1	    1.10000	    0.90000;
	3917	 1	 238.1882	 43.995	 0.0	 0.0	 39	    1.04156	  -12.99008	 230.0	 1	    1.10000	    0.90000;
	3918	 1	 319.2809	 75.464	 0.0	 0.0	 39	    1.03660	   -9.93178	 230.0	 1	    1.10000	    0.90000;
	3919	 1	 184.5093	 24.094	 0.0	 0.0	 39	    0.96462	  -22.85865	 230.0	 1	    1.10000	    0.90000;
	3920	 1	 172.5018	 23.677	 0.0	 0.0	 39	    0.97682	  -21.66368	 230.0	 1	    1.10000	    0.90000;
	3921	 1	 150.8902	 34.821	 0.0	 0.0	 39	    1.08089	  -10.97515	 230.0	 1	    1.10000	    0.90000;
	3922	 1	 253.4454	 31.919	 0.0	 0.0	 39	    0.97704	  -18.76347	 230.0	 1	    1.10000	    0.90000;
	3923	 1	 399.0618	 67.021	 0.0	 0.0	 39	    1.09323	   -1.40400	 230.0	 1	    1.10000	    0.90000;
	3924	 1	 332.4879	 47.165	 0.0	 0.0	 39	    1.04819	   -9.24964	 230.0	 1	    1.10000	    0.90000;
	3925	 1	 0.0	 0.0	 0.0	 0.0	 39	    1.08608	  -11.48415	 115.0	 1	    1.10000	    0.90000;
	3926	 1	 267.3529	 16.668	 0.0	 0.0	 39	    0.96528	  -27.81811	 115.0	 1	    1.10000	    0.90000;
	3931	 2	 0.0	 0.0	 0.0	 0.0	 39	    1.08405	  -10.89838	 20.0	 1	    1.10000	    0.90000;
	3932	 2	 0.0	 0.0	 0.0	 0.0	 39	    1.02582	  -11.67790	 20.0	 1	    1.10000	    0.90000;
	3933	 3	 0.0	 0.0	 0.0	 0.0	 39	    1.10000	    0.00000	 20.0	 1	    1.10000	    0.90000;
	4001	 1	 0.0	 0.0	 0.0	 0.0	 40	    0.95974	  -11.22659	 500.0	 1	    1.10000	    0.90000;
	4002	 1	 168.6841	 21.998	 0.0	 0.0	 40	    1.01167	   -9.31030	 500.0	 1	    1.10000	    0.90000;
	4003	 1	 0.0	 0.0	 0.0	 0.0	 40	    1.10000	   -6.83566	 500.0	 1	    1.10000	    0.90000;
	4004	 1	 270.4505	 35.297	 0.0	 0.0	 40	    0.96136	   -7.41801	 500.0	 1	    1.10000	    0.90000;
	4005	 1	 480.1144	 157.418	 0.0	 0.0	 40	    0.91857	   -2.25217	 500.0	 1	    1.10000	    0.90000;
	4006	 1	 0.0	 0.0	 0.0	 0.0	 40	    0.93720	   -6.39688	 500.0	 1	    1.10000	    0.90000;
	4007	 1	 0.0	 0.0	 0.0	 0.0	 40	    0.93794	   -6.57344	 500.0	 1	    1.10000	    0.90000;
	4008	 1	 285.1446	 37.198	 0.0	 0.0	 40	    0.95137	  -14.61867	 345.0	 1	    1.10000	    0.90000;
	4009	 1	 2208.7429	 431.395	 0.0	 0.0	 40	    0.95567	   -8.60221	 230.0	 1	    1.10000	    0.90000;
	4010	 1	 3133.6101	 0.0	 0.0	 0.0	 90	    0.95125	   -9.11225	 230.0	 1	    1.10000	    0.90000;
	4031	 2	 0.0	 0.0	 0.0	 0.0	 40	    0.95371	  -11.22659	 20.0	 1	    1.10000	    0.90000;
	4035	 2	 0.0	 0.0	 0.0	 0.0	 40	    0.90235	   -0.98328	 20.0	 1	    1.10000	    0.90000;
	4039	 2	 0.0	 0.0	 0.0	 0.0	 40	    0.96461	   -7.69536	 20.0	 1	    1.10000	    0.90000;
	4090	 1	 0.0	 0.0	 0.0	 0.0	 40	    1.00551	   -9.58439	 500.0	 1	    1.10000	    0.90000;
	4091	 1	 0.0	 0.0	 0.0	 0.0	 40	    0.98586	   -8.23865	 500.0	 1	    1.10000	    0.90000;
	4092	 1	 0.0	 0.0	 0.0	 0.0	 40	    0.96906	  -10.30088	 500.0	 1	    1.10000	    0.90000;
	4093	 1	 0.0	 0.0	 0.0	 0.0	 40	    0.96979	  -10.66861	 500.0	 1	    1.10000	    0.90000;
	4094	 1	 0.0	 0.0	 0.0	 0.0	 40	    0.96516	   -7.84131	 500.0	 1	    1.10000	    0.90000;
	4095	 1	 0.0	 0.0	 0.0	 0.0	 40	    0.96856	  -10.46155	 500.0	 1	    1.10000	    0.90000;
	4096	 1	 0.0	 0.0	 0.0	 0.0	 40	    0.96928	  -10.85030	 500.0	 1	    1.10000	    0.90000;
	4097	 1	 0.0	 0.0	 0.0	 0.0	 40	    0.96496	   -7.86210	 500.0	 1	    1.10000	    0.90000;
	4101	 1	 995.0275	 129.784	 0.0	 0.0	 40	    0.91911	   24.61838	 500.0	 1	    1.10000	    0.90000;
	4102	 1	 480.649	 68.664	 0.0	 0.0	 40	    1.01591	    6.44353	 500.0	 1	    1.10000	    0.90000;
	4103	 1	 11.6269	 1.509	 0.0	 0.0	 40	    0.90000	    3.46060	 500.0	 1	    1.10000	    0.90000;
	4104	 1	 2527.7724	 329.74	 0.0	 0.0	 40	    0.90101	   -9.84126	 230.0	 1	    1.10000	    0.90000;
	4131	 2	 0.0	 0.0	 0.0	 0.0	 40	    0.90921	   28.40193	 20.0	 1	    1.10000	    0.90000;
	4132	 2	 0.0	 0.0	 0.0	 0.0	 40	    1.03716	    7.24427	 20.0	 1	    1.10000	    0.90000;
	4201	 1	 5762.6589	 461.013	 0.0	 0.0	 40	    1.01147	   10.92349	 500.0	 1	    1.10000	    0.90000;
	4202	 1	 4558.2389	 594.626	 0.0	 0.0	 40	    0.93905	   -7.37377	 500.0	 1	    1.10000	    0.90000;
	4203	 1	 4379.6262	 571.331	 0.0	 0.0	 40	    0.90000	  -12.21970	 500.0	 1	    1.10000	    0.90000;
	4204	 1	 1014.5202	 132.34	 0.0	 0.0	 40	    0.94237	  -12.55778	 500.0	 1	    1.10000	    0.90000;
	4231	 2	 0.0	 0.0	 0.0	 0.0	 40	    1.02704	   11.70614	 20.0	 1	    1.10000	    0.90000;
	4232	 2	 0.0	 0.0	 0.0	 0.0	 40	    0.94005	   -6.98952	 20.0	 1	    1.10000	    0.90000;
	5001	 1	 7574.0522	 1721.375	 0.0	 0.0	 50	    1.09155	   21.36345	 500.0	 1	    1.10000	    0.90000;
	5002	 1	 9003.9839	 1174.359	 0.0	 0.0	 50	    1.09228	    8.73864	 500.0	 1	    1.10000	    0.90000;
	5003	 1	 615.2178	 80.253	 0.0	 0.0	 50	    1.04961	    2.84238	 230.0	 1	    1.10000	    0.90000;
	5004	 1	 0.0	 0.0	 0.0	 0.0	 50	    0.97719	   -3.06055	 230.0	 1	    1.10000	    0.90000;
	5031	 2	 0.0	 0.0	 0.0	 0.0	 50	    1.10000	   23.46325	 20.0	 1	    1.10000	    0.90000;
	5032	 2	 0.0	 0.0	 0.0	 0.0	 50	    1.10000	   11.07892	 20.0	 1	    1.10000	    0.90000;
	6101	 1	 0.0	 0.0	 0.0	 0.0	 61	    1.09424	   -3.91342	 500.0	 1	    1.10000	    0.90000;
	6102	 1	 1053.1441	 -345.277	 0.0	 0.0	 61	    1.07090	   -3.12372	 345.0	 1	    1.10000	    0.90000;
	6103	 1	 391.888	 51.111	 0.0	 0.0	 61	    1.03958	   -6.73189	 345.0	 1	    1.10000	    0.90000;
	6104	 1	 1694.958	 221.085	 0.0	 0.0	 61	    0.97289	  -19.08447	 230.0	 1	    1.10000	    0.90000;
	6132	 2	 0.0	 0.0	 0.0	 0.0	 61	    1.07094	   -2.48441	 20.0	 1	    1.10000	    0.90000;
	6201	 1	 205.82	 26.857	 0.0	 0.0	 60	    1.09848	   13.43675	 500.0	 1	    1.10000	    0.90000;
...
];

%% generator data
%	bus	Pg	Qg	Qmax	Qmin	Vg	mBase	status	Pmax	Pmin	Pc1	Pc2	Qc1min	Qc1max	Qc2min	Qc2max	ramp_agc	ramp_10	ramp_30	ramp_q	apf
mpc.gen = [
	1032	 2060.0	 1030.0	 1030.0	 -1030.0	 1.01833	 100.0	 1	 2060.0	 0.0	 0.0	 0.0	 0.0	 0.0	 0.0	 0.0	 0.0	 0.0	 0.0	 0.0	 0.0; % NUC
	1032	 714.0	 357.0	 357.0	 -357.0	 1.01833	 100.0	 1	 714.0	 0.0	 0.0	 0.0	 0.0	 0.0	 0.0	 0.0	 0.0	 0.0	 0.0	 0.0	 0.0; % COW
	1034	 4587.0	 -746.075	 2294.0	 -2294.0	 0.9574	 100.0	 1	 4587.0	 0.0	 0.0	 0.0	 0.0	 0.0	 0.0	 0.0	 0.0	 0.0	 0.0	 0.0	 0.0; % NUC
	1034	 0.0	 -130.892	 918.0	 -918.0	 0.9574	 100.0	 1	 1835.0	 0.0	 0.0	 0.0	 0.0	 0.0	 0.0	 0.0	 0.0	 0.0	 0.0	 0.0	 0.0; % COW
	1034	 0.0	 -76.752	 700.0	 -700.0	 0.9574	 100.0	 1	 1400.0	 0.0	 0.0	 0.0	 0.0	 0.0	 0.0	 0.0	 0.0	 0.0	 0.0	 0.0	 0.0; % COW
	1131	 518.669	 59.423	 308.0	 -308.0	 1.1	 100.0	 1	 615.0	 0.0	 0.0	 0.0	 0.0	 0.0	 0.0	 0.0	 0.0	 0.0	 0.0	 0.0	 0.0; % COW
	1131	 0.0	 1295.878	 1916.0	 -1916.0	 1.1	 100.0	 1	 3830.8	 0.0	 0.0	 0.0	 0.0	 0.0	 0.0	 0.0	 0.0	 0.0	 0.0	 0.0	 0.0; % COW
	1131	 0.0	 9.313	 120.0	 -120.0	 1.1	 100.0	 1	 240.0	 0.0	 0.0	 0.0	 0.0	 0.0	 0.0	 0.0	 0.0	 0.0	 0.0	 0.0	 0.0; % NG
	1232	 1871.103	 -196.345	 1208.0	 -1208.0	 1.09112	 100.0	 1	 2415.0	 0.0	 0.0	 0.0	 0.0	 0.0	 0.0	 0.0	 0.0	 0.0	 0.0	 0.0	 0.0; % COW
	1232	 1256.0	 -54.1	 628.0	 -628.0	 1.09112	 100.0	 1	 1256.0	 0.0	 0.0	 0.0	 0.0	 0.0	 0.0	 0.0	 0.0	 0.0	 0.0	 0.0	 0.0; % COW
	1331	 1682.0	 -157.35	 841.0	 -841.0	 1.03091	 100.0	 1	 1682.0	 0.0	 0.0	 0.0	 0.0	 0.0	 0.0	 0.0	 0.0	 0.0	 0.0	 0.0	 0.0; % COW
	1331	 2438.0	 -319.101	 1219.0	 -1219.0	 1.03091	 100.0	 1	 2438.0	 0.0	 0.0	 0.0	 0.0	 0.0	 0.0	 0.0	 0.0	 0.0	 0.0	 0.0	 0.0; % COW
	1333	 605.0	 15.7	 303.0	 -303.0	 1.1	 100.0	 1	 605.0	 0.0	 0.0	 0.0	 0.0	 0.0	 0.0	 0.0	 0.0	 0.0	 0.0	 0.0	 0.0; % COW
	1333	 5491.0	 1089.433	 2746.0	 -2746.0	 1.1	 100.0	 1	 5491.0	 0.0	 0.0	 0.0	 0.0	 0.0	 0.0	 0.0	 0.0	 0.0	 0.0	 0.0	 0.0; % COW
	1333	 0.0	 0.248	 38.0	 -38.0	 1.1	 100.0	 1	 75.0	 0.0	 0.0	 0.0	 0.0	 0.0	 0.0	 0.0	 0.0	 0.0	 0.0	 0.0	 0.0; % PEL
	1431	 7118.7	 1005.197	 3559.0	 -3559.0	 1.07849	 100.0	 1	 7118.7	 0.0	 0.0	 0.0	 0.0	 0.0	 0.0	 0.0	 0.0	 0.0	 0.0	 0.0	 0.0; % COW
	1431	 4113.0	 354.083	 2057.0	 -2057.0	 1.07849	 100.0	 1	 4113.0	 0.0	 0.0	 0.0	 0.0	 0.0	 0.0	 0.0	 0.0	 0.0	 0.0	 0.0	 0.0; % COW
	1431	 0.0	 0.019	 15.0	 -15.0	 1.07849	 100.0	 1	 30.0	 0.0	 0.0	 0.0	 0.0	 0.0	 0.0	 0.0	 0.0	 0.0	 0.0	 0.0	 0.0; % PEL
	2030	 2140.0	 161.975	 1070.0	 -1070.0	 0.92129	 100.0	 1	 2140.0	 0.0	 0.0	 0.0	 0.0	 0.0	 0.0	 0.0	 0.0	 0.0	 0.0	 0.0	 0.0; % COW
	2030	 689.156	 17.692	 350.0	 -350.0	 0.92129	 100.0	 1	 699.0	 0.0	 0.0	 0.0	 0.0	 0.0	 0.0	 0.0	 0.0	 0.0	 0.0	 0.0	 0.0; % COW
	2130	 400.0	 51.943	 200.0	 -200.0	 1.04656	 100.0	 1	 400.0	 0.0	 0.0	 0.0	 0.0	 0.0	 0.0	 0.0	 0.0	 0.0	 0.0	 0.0	 0.0; % COW
	2130	 507.0	 80.758	 254.0	 -254.0	 1.04656	 100.0	 1	 507.0	 0.0	 0.0	 0.0	 0.0	 0.0	 0.0	 0.0	 0.0	 0.0	 0.0	 0.0	 0.0; % COW
	2130	 0.0	 78.46	 250.0	 -250.0	 1.04656	 100.0	 1	 500.0	 0.0	 0.0	 0.0	 0.0	 0.0	 0.0	 0.0	 0.0	 0.0	 0.0	 0.0	 0.0; % NG
	2130	 0.0	 10.155	 86.0	 -86.0	 1.04656	 100.0	 1	 172.0	 0.0	 0.0	 0.0	 0.0	 0.0	 0.0	 0.0	 0.0	 0.0	 0.0	 0.0	 0.0; % NG
	2233	 0.0	 225.42	 304.0	 -118.0	 0.95079	 100.0	 1	 706.0	 0.0	 0.0	 0.0	 0.0	 0.0	 0.0	 0.0	 0.0	 0.0	 0.0	 0.0	 0.0; % COW
	2233	 124.441	 522.004	 611.0	 -181.0	 0.95079	 100.0	 1	 1253.0	 0.0	 0.0	 0.0	 0.0	 0.0	 0.0	 0.0	 0.0	 0.0	 0.0	 0.0	 0.0; % COW
	2233	 500.0	 130.879	 206.0	 -155.0	 0.95079	 100.0	 1	 500.0	 0.0	 0.0	 0.0	 0.0	 0.0	 0.0	 0.0	 0.0	 0.0	 0.0	 0.0	 0.0; % COW
	2332	 1118.0	 590.0	 590.0	 -364.0	 1.06165	 100.0	 1	 1118.0	 0.0	 0.0	 0.0	 0.0	 0.0	 0.0	 0.0	 0.0	 0.0	 0.0	 0.0	 0.0; % COW
	2438	 0.0	 87.712	 728.0	 -454.0	 0.97235	 100.0	 1	 1563.0	 0.0	 0.0	 0.0	 0.0	 0.0	 0.0	 0.0	 0.0	 0.0	 0.0	 0.0	 0.0; % COW
	2438	 0.0	 46.749	 1902.0	 -1168.0	 0.97235	 100.0	 1	 3718.0	 0.0	 0.0	 0.0	 0.0	 0.0	 0.0	 0.0	 0.0	 0.0	 0.0	 0.0	 0.0; % COW
	2438	 1575.374	 244.795	 2301.0	 -1053.0	 0.97235	 100.0	 1	 2803.0	 0.0	 0.0	 0.0	 0.0	 0.0	 0.0	 0.0	 0.0	 0.0	 0.0	 0.0	 0.0; % NUC
	2438	 0.0	 18.712	 659.0	 -523.0	 0.97235	 100.0	 1	 1340.0	 0.0	 0.0	 0.0	 0.0	 0.0	 0.0	 0.0	 0.0	 0.0	 0.0	 0.0	 0.0; % COW
	2438	 946.0	 105.294	 436.0	 -197.0	 0.97235	 100.0	 1	 946.0	 0.0	 0.0	 0.0	 0.0	 0.0	 0.0	 0.0	 0.0	 0.0	 0.0	 0.0	 0.0; % NUC
	2438	 0.0	 -39.814	 561.0	 -553.0	 0.97235	 100.0	 1	 1273.0	 0.0	 0.0	 0.0	 0.0	 0.0	 0.0	 0.0	 0.0	 0.0	 0.0	 0.0	 0.0; % COW
	2438	 3967.0	 61.745	 1910.0	 -1150.0	 0.97235	 100.0	 1	 3967.0	 0.0	 0.0	 0.0	 0.0	 0.0	 0.0	 0.0	 0.0	 0.0	 0.0	 0.0	 0.0; % NUC
	2438	 0.0	 0.25	 0.5	 0.0	 0.97235	 100.0	 1	 0.0	 -1006.0	 0.0	 0.0	 0.0	 0.0	 0.0	 0.0	 0.0	 0.0	 0.0	 0.0	 0.0; % SYNC
	2533	 2232.0	 -731.082	 1100.0	 -820.0	 0.9	 100.0	 1	 2232.0	 0.0	 0.0	 0.0	 0.0	 0.0	 0.0	 0.0	 0.0	 0.0	 0.0	 0.0	 0.0; % COW
	2630	 2692.0	 838.306	 1346.0	 -1346.0	 1.09168	 100.0	 1	 2692.0	 0.0	 0.0	 0.0	 0.0	 0.0	 0.0	 0.0	 0.0	 0.0	 0.0	 0.0	 0.0; % COW
	2631	 0.0	 -16.62	 159.0	 -159.0	 1.00119	 100.0	 1	 318.0	 0.0	 0.0	 0.0	 0.0	 0.0	 0.0	 0.0	 0.0	 0.0	 0.0	 0.0	 0.0; % NG
	2634	 1900.0	 492.396	 950.0	 -950.0	 1.07928	 100.0	 1	 1900.0	 0.0	 0.0	 0.0	 0.0	 0.0	 0.0	 0.0	 0.0	 0.0	 0.0	 0.0	 0.0; % COW
	2637	 0.0	 -109.995	 110.0	 -110.0	 1.00176	 100.0	 1	 110.0	 0.0	 0.0	 0.0	 0.0	 0.0	 0.0	 0.0	 0.0	 0.0	 0.0	 0.0	 0.0; % NG
	2638	 686.881	 20.032	 100.0	 -100.0	 1.00539	 100.0	 1	 1272.0	 -1272.0	 0.0	 0.0	 0.0	 0.0	 0.0	 0.0	 0.0	 0.0	 0.0	 0.0	 0.0; % COW
	3133	 42.0	 41.999	 42.0	 -29.0	 1.09351	 100.0	 1	 42.0	 0.0	 0.0	 0.0	 0.0	 0.0	 0.0	 0.0	 0.0	 0.0	 0.0	 0.0	 0.0; % NG
	3133	 0.1	 499.999	 500.0	 -500.0	 1.09351	 100.0	 1	 0.1	 0.0	 0.0	 0.0	 0.0	 0.0	 0.0	 0.0	 0.0	 0.0	 0.0	 0.0	 0.0; % NG
	3135	 369.0	 59.047	 239.0	 -201.0	 1.08759	 100.0	 1	 369.0	 0.0	 0.0	 0.0	 0.0	 0.0	 0.0	 0.0	 0.0	 0.0	 0.0	 0.0	 0.0; % COW
	3135	 26.0	 14.777	 100.0	 -85.0	 1.08759	 100.0	 1	 26.0	 0.0	 0.0	 0.0	 0.0	 0.0	 0.0	 0.0	 0.0	 0.0	 0.0	 0.0	 0.0; % NG
	3234	 121.0	 17.708	 101.0	 -75.0	 1.1	 100.0	 1	 121.0	 0.0	 0.0	 0.0	 0.0	 0.0	 0.0	 0.0	 0.0	 0.0	 0.0	 0.0	 0.0; % COW
	3234	 2628.0	 670.763	 1244.0	 -1234.0	 1.1	 100.0	 1	 2628.0	 0.0	 0.0	 0.0	 0.0	 0.0	 0.0	 0.0	 0.0	 0.0	 0.0	 0.0	 0.0; % NG
	3234	 707.0	 137.128	 382.0	 -212.0	 1.1	 100.0	 1	 707.0	 0.0	 0.0	 0.0	 0.0	 0.0	 0.0	 0.0	 0.0	 0.0	 0.0	 0.0	 0.0; % COW
	3234	 690.0	 12.572	 75.0	 -55.0	 1.1	 100.0	 1	 690.0	 0.0	 0.0	 0.0	 0.0	 0.0	 0.0	 0.0	 0.0	 0.0	 0.0	 0.0	 0.0; % COW
	3333	 690.0	 74.453	 398.0	 -226.0	 1.05703	 100.0	 1	 690.0	 0.0	 0.0	 0.0	 0.0	 0.0	 0.0	 0.0	 0.0	 0.0	 0.0	 0.0	 0.0; % COW
	3333	 213.0	 25.967	 202.0	 -143.0	 1.05703	 100.0	 1	 213.0	 0.0	 0.0	 0.0	 0.0	 0.0	 0.0	 0.0	 0.0	 0.0	 0.0	 0.0	 0.0; % COW
	3432	 1218.0	 333.82	 510.0	 -306.0	 1.1	 100.0	 1	 1218.0	 -924.0	 0.0	 0.0	 0.0	 0.0	 0.0	 0.0	 0.0	 0.0	 0.0	 0.0	 0.0; % COW
	3433	 524.833	 47.622	 231.0	 -175.0	 1.1	 100.0	 1	 628.0	 0.0	 0.0	 0.0	 0.0	 0.0	 0.0	 0.0	 0.0	 0.0	 0.0	 0.0	 0.0; % COW
	3433	 2016.0	 430.97	 939.0	 -562.0	 1.1	 100.0	 1	 2016.0	 0.0	 0.0	 0.0	 0.0	 0.0	 0.0	 0.0	 0.0	 0.0	 0.0	 0.0	 0.0; % COW
	3531	 291.891	 213.397	 1004.0	 -599.0	 1.1	 100.0	 1	 868.0	 0.0	 0.0	 0.0	 0.0	 0.0	 0.0	 0.0	 0.0	 0.0	 0.0	 0.0	 0.0; % COW
	3531	 325.0	 36.799	 253.0	 -181.0	 1.1	 100.0	 1	 325.0	 0.0	 0.0	 0.0	 0.0	 0.0	 0.0	 0.0	 0.0	 0.0	 0.0	 0.0	 0.0; % COW
	3531	 0.0	 1.502	 13.0	 -10.0	 1.1	 100.0	 1	 30.0	 0.0	 0.0	 0.0	 0.0	 0.0	 0.0	 0.0	 0.0	 0.0	 0.0	 0.0	 0.0; % PEL
	3631	 0.0	 6.491	 20.0	 -14.0	 1.1	 100.0	 1	 53.0	 0.0	 0.0	 0.0	 0.0	 0.0	 0.0	 0.0	 0.0	 0.0	 0.0	 0.0	 0.0; % NG
	3631	 143.0	 47.343	 74.0	 -34.0	 1.1	 100.0	 1	 143.0	 0.0	 0.0	 0.0	 0.0	 0.0	 0.0	 0.0	 0.0	 0.0	 0.0	 0.0	 0.0; % COW
	3731	 255.0	 200.0	 200.0	 -121.0	 0.95931	 100.0	 1	 255.0	 0.0	 0.0	 0.0	 0.0	 0.0	 0.0	 0.0	 0.0	 0.0	 0.0	 0.0	 0.0; % NG
	3831	 2267.0	 387.015	 1175.0	 -980.0	 1.09762	 100.0	 1	 2267.0	 0.0	 0.0	 0.0	 0.0	 0.0	 0.0	 0.0	 0.0	 0.0	 0.0	 0.0	 0.0; % COW
	3835	 1381.0	 -203.749	 662.0	 -479.0	 1.04175	 100.0	 1	 1381.0	 0.0	 0.0	 0.0	 0.0	 0.0	 0.0	 0.0	 0.0	 0.0	 0.0	 0.0	 0.0; % COW
	3835	 0.0	 0.25	 0.5	 0.0	 1.04175	 100.0	 1	 0.0	 -510.0	 0.0	 0.0	 0.0	 0.0	 0.0	 0.0	 0.0	 0.0	 0.0	 0.0	 0.0; % SYNC
	3836	 1021.0	 355.067	 476.0	 -352.0	 1.1	 100.0	 1	 1021.0	 0.0	 0.0	 0.0	 0.0	 0.0	 0.0	 0.0	 0.0	 0.0	 0.0	 0.0	 0.0; % COW
	3931	 314.0	 26.58	 151.0	 -115.0	 1.08405	 100.0	 1	 314.0	 0.0	 0.0	 0.0	 0.0	 0.0	 0.0	 0.0	 0.0	 0.0	 0.0	 0.0	 0.0; % NG
	3931	 0.0	 658.057	 1284.0	 -946.0	 1.08405	 100.0	 1	 3696.0	 0.0	 0.0	 0.0	 0.0	 0.0	 0.0	 0.0	 0.0	 0.0	 0.0	 0.0	 0.0; % COW
	3932	 0.0	 -500.0	 1150.0	 -500.0	 1.02582	 100.0	 1	 1478.0	 0.0	 0.0	 0.0	 0.0	 0.0	 0.0	 0.0	 0.0	 0.0	 0.0	 0.0	 0.0; % PEL
	3933	 590.0	 218.984	 363.0	 -82.0	 1.1	 100.0	 1	 590.0	 0.0	 0.0	 0.0	 0.0	 0.0	 0.0	 0.0	 0.0	 0.0	 0.0	 0.0	 0.0; % COW
	3933	 191.0	 18.778	 77.0	 -55.0	 1.1	 100.0	 1	 191.0	 0.0	 0.0	 0.0	 0.0	 0.0	 0.0	 0.0	 0.0	 0.0	 0.0	 0.0	 0.0; % NG
	3933	 1314.0	 309.299	 500.0	 -307.0	 1.1	 100.0	 1	 1314.0	 0.0	 0.0	 0.0	 0.0	 0.0	 0.0	 0.0	 0.0	 0.0	 0.0	 0.0	 0.0; % NUC
	3933	 3505.0	 1012.584	 1256.0	 -1041.0	 1.1	 100.0	 1	 3505.0	 0.0	 0.0	 0.0	 0.0	 0.0	 0.0	 0.0	 0.0	 0.0	 0.0	 0.0	 0.0; % NUC
	3933	 293.0	 1.261	 13.0	 -11.0	 1.1	 100.0	 1	 293.0	 0.0	 0.0	 0.0	 0.0	 0.0	 0.0	 0.0	 0.0	 0.0	 0.0	 0.0	 0.0; % NG
	3933	 0.0	 0.25	 0.5	 0.0	 1.1	 100.0	 1	 0.0	 -449.0	 0.0	 0.0	 0.0	 0.0	 0.0	 0.0	 0.0	 0.0	 0.0	 0.0	 0.0; % NUC
	4039	 0.0	 102.0	 102.0	 -102.0	 0.96461	 100.0	 1	 204.0	 0.0	 0.0	 0.0	 0.0	 0.0	 0.0	 0.0	 0.0	 0.0	 0.0	 0.0	 0.0; % COW
	4039	 2918.0	 1459.0	 1459.0	 -1459.0	 0.96461	 100.0	 1	 2918.0	 0.0	 0.0	 0.0	 0.0	 0.0	 0.0	 0.0	 0.0	 0.0	 0.0	 0.0	 0.0; % COW
	4039	 0.0	 188.0	 188.0	 -188.0	 0.96461	 100.0	 1	 375.0	 0.0	 0.0	 0.0	 0.0	 0.0	 0.0	 0.0	 0.0	 0.0	 0.0	 0.0	 0.0; % NG
	4031	 0.0	 -502.0	 502.0	 -502.0	 0.95371	 100.0	 1	 1003.0	 0.0	 0.0	 0.0	 0.0	 0.0	 0.0	 0.0	 0.0	 0.0	 0.0	 0.0	 0.0; % COW
	4031	 0.0	 -489.0	 489.0	 -489.0	 0.95371	 100.0	 1	 978.0	 0.0	 0.0	 0.0	 0.0	 0.0	 0.0	 0.0	 0.0	 0.0	 0.0	 0.0	 0.0; % COW
	4031	 0.0	 -38.0	 38.0	 -38.0	 0.95371	 100.0	 1	 75.0	 0.0	 0.0	 0.0	 0.0	 0.0	 0.0	 0.0	 0.0	 0.0	 0.0	 0.0	 0.0; % NG
	4031	 0.0	 -120.0	 120.0	 -120.0	 0.95371	 100.0	 1	 240.0	 0.0	 0.0	 0.0	 0.0	 0.0	 0.0	 0.0	 0.0	 0.0	 0.0	 0.0	 0.0; % NG
	4035	 0.0	 -255.0	 255.0	 -255.0	 0.90235	 100.0	 1	 510.0	 0.0	 0.0	 0.0	 0.0	 0.0	 0.0	 0.0	 0.0	 0.0	 0.0	 0.0	 0.0; % NG
	4035	 0.0	 -307.0	 307.0	 -307.0	 0.90235	 100.0	 1	 613.0	 0.0	 0.0	 0.0	 0.0	 0.0	 0.0	 0.0	 0.0	 0.0	 0.0	 0.0	 0.0; % COW
	4035	 3671.0	 -1836.0	 1836.0	 -1836.0	 0.90235	 100.0	 1	 3671.0	 0.0	 0.0	 0.0	 0.0	 0.0	 0.0	 0.0	 0.0	 0.0	 0.0	 0.0	 0.0; % NUC
	4035	 0.0	 -488.0	 488.0	 -488.0	 0.90235	 100.0	 1	 976.0	 0.0	 0.0	 0.0	 0.0	 0.0	 0.0	 0.0	 0.0	 0.0	 0.0	 0.0	 0.0; % COW
	4131	 11028.664	 -1434.79	 6482.0	 -6482.0	 0.90921	 100.0	 1	 12963.0	 0.0	 0.0	 0.0	 0.0	 0.0	 0.0	 0.0	 0.0	 0.0	 0.0	 0.0	 0.0; % COW
	4131	 0.0	 -0.517	 120.0	 -120.0	 0.90921	 100.0	 1	 240.0	 0.0	 0.0	 0.0	 0.0	 0.0	 0.0	 0.0	 0.0	 0.0	 0.0	 0.0	 0.0; % COW
	4132	 2945.0	 1271.339	 1473.0	 -1473.0	 1.03716	 100.0	 1	 2945.0	 0.0	 0.0	 0.0	 0.0	 0.0	 0.0	 0.0	 0.0	 0.0	 0.0	 0.0	 0.0; % COW
	4132	 0.0	 2637.653	 2847.0	 -2847.0	 1.03716	 100.0	 1	 5693.0	 0.0	 0.0	 0.0	 0.0	 0.0	 0.0	 0.0	 0.0	 0.0	 0.0	 0.0	 0.0; % COW
	4132	 0.0	 401.84	 580.0	 -580.0	 1.03716	 100.0	 1	 1160.0	 0.0	 0.0	 0.0	 0.0	 0.0	 0.0	 0.0	 0.0	 0.0	 0.0	 0.0	 0.0; % COW
	4132	 0.0	 99.732	 231.0	 -231.0	 1.03716	 100.0	 1	 461.0	 0.0	 0.0	 0.0	 0.0	 0.0	 0.0	 0.0	 0.0	 0.0	 0.0	 0.0	 0.0; % COW
	4132	 0.0	 17.117	 88.0	 -88.0	 1.03716	 100.0	 1	 175.0	 0.0	 0.0	 0.0	 0.0	 0.0	 0.0	 0.0	 0.0	 0.0	 0.0	 0.0	 0.0; % NG
	4231	 0.0	 728.0	 728.0	 -728.0	 1.02704	 100.0	 1	 1456.0	 0.0	 0.0	 0.0	 0.0	 0.0	 0.0	 0.0	 0.0	 0.0	 0.0	 0.0	 0.0; % COW
	4231	 0.0	 659.0	 659.0	 -659.0	 1.02704	 100.0	 1	 1317.0	 0.0	 0.0	 0.0	 0.0	 0.0	 0.0	 0.0	 0.0	 0.0	 0.0	 0.0	 0.0; % COW
	4231	 2837.968	 1808.0	 1808.0	 -1808.0	 1.02704	 100.0	 1	 3615.0	 0.0	 0.0	 0.0	 0.0	 0.0	 0.0	 0.0	 0.0	 0.0	 0.0	 0.0	 0.0; % COW
	4231	 0.0	 24.0	 24.0	 -24.0	 1.02704	 100.0	 1	 47.0	 0.0	 0.0	 0.0	 0.0	 0.0	 0.0	 0.0	 0.0	 0.0	 0.0	 0.0	 0.0; % NG
	4232	 1184.0	 150.368	 592.0	 -592.0	 0.94005	 100.0	 1	 1184.0	 0.0	 0.0	 0.0	 0.0	 0.0	 0.0	 0.0	 0.0	 0.0	 0.0	 0.0	 0.0; % NUC
	4232	 0.0	 37.145	 287.0	 -287.0	 0.94005	 100.0	 1	 573.0	 0.0	 0.0	 0.0	 0.0	 0.0	 0.0	 0.0	 0.0	 0.0	 0.0	 0.0	 0.0; % COW
	4232	 0.0	 5.337	 108.0	 -108.0	 0.94005	 100.0	 1	 215.0	 0.0	 0.0	 0.0	 0.0	 0.0	 0.0	 0.0	 0.0	 0.0	 0.0	 0.0	 0.0; % NG
	5031	 0.0	 46.5	 605.0	 -605.0	 1.1	 100.0	 1	 1210.0	 0.0	 0.0	 0.0	 0.0	 0.0	 0.0	 0.0	 0.0	 0.0	 0.0	 0.0	 0.0; % PEL
	5031	 8798.8	 1974.689	 4399.0	 -4399.0	 1.1	 100.0	 1	 8798.8	 0.0	 0.0	 0.0	 0.0	 0.0	 0.0	 0.0	 0.0	 0.0	 0.0	 0.0	 0.0; % COW
	5032	 5412.487	 884.685	 2977.0	 -2977.0	 1.1	 100.0	 1	 5954.0	 0.0	 0.0	 0.0	 0.0	 0.0	 0.0	 0.0	 0.0	 0.0	 0.0	 0.0	 0.0; % COW
	5032	 4400.0	 502.317	 2200.0	 -2200.0	 1.1	 100.0	 1	 4400.0	 0.0	 0.0	 0.0	 0.0	 0.0	 0.0	 0.0	 0.0	 0.0	 0.0	 0.0	 0.0; % NUC
	5032	 0.0	 504.489	 2205.0	 -2205.0	 1.1	 100.0	 1	 4410.2	 0.0	 0.0	 0.0	 0.0	 0.0	 0.0	 0.0	 0.0	 0.0	 0.0	 0.0	 0.0; % COW
	5032	 0.0	 0.319	 54.0	 -54.0	 1.1	 100.0	 1	 108.0	 0.0	 0.0	 0.0	 0.0	 0.0	 0.0	 0.0	 0.0	 0.0	 0.0	 0.0	 0.0; % NG
	5032	 0.0	 8.034	 271.0	 -271.0	 1.1	 100.0	 1	 541.0	 0.0	 0.0	 0.0	 0.0	 0.0	 0.0	 0.0	 0.0	 0.0	 0.0	 0.0	 0.0; % NG
	6132	 15.0	 0.001	 8.0	 -8.0	 1.07094	 100.0	 1	 15.0	 0.0	 0.0	 0.0	 0.0	 0.0	 0.0	 0.0	 0.0	 0.0	 0.0	 0.0	 0.0; % NG
	6132	 129.295	 0.436	 147.0	 -147.0	 1.07094	 100.0	 1	 293.0	 0.0	 0.0	 0.0	 0.0	 0.0	 0.0	 0.0	 0.0	 0.0	 0.0	 0.0	 0.0; % NG
	6132	 2144.0	 23.156	 1072.0	 -1072.0	 1.07094	 100.0	 1	 2144.0	 0.0	 0.0	 0.0	 0.0	 0.0	 0.0	 0.0	 0.0	 0.0	 0.0	 0.0	 0.0; % COW
	6132	 35.0	 0.007	 18.0	 -18.0	 1.07094	 100.0	 1	 35.0	 0.0	 0.0	 0.0	 0.0	 0.0	 0.0	 0.0	 0.0	 0.0	 0.0	 0.0	 0.0; % NG
	6132	 236.0	 0.281	 118.0	 -118.0	 1.07094	 100.0	 1	 236.0	 0.0	 0.0	 0.0	 0.0	 0.0	 0.0	 0.0	 0.0	 0.0	 0.0	 0.0	 0.0; % NG
	6231	 2511.0	 347.503	 1256.0	 -1256.0	 1.1	 100.0	 1	 2511.0	 0.0	 0.0	 0.0	 0.0	 0.0	 0.0	 0.0	 0.0	 0.0	 0.0	 0.0	 0.0; % COW
	6231	 140.0	 1.169	 70.0	 -70.0	 1.1	 100.0	 1	 140.0	 0.0	 0.0	 0.0	 0.0	 0.0	 0.0	 0.0	 0.0	 0.0	 0.0	 0.0	 0.0; % COW
	6235	 0.0	 -14.232	 64.0	 -64.0	 1.09872	 100.0	 1	 127.0	 0.0	 0.0	 0.0	 0.0	 0.0	 0.0	 0.0	 0.0	 0.0	 0.0	 0.0	 0.0; % NG
	6235	 519.971	 -236.199	 347.0	 -347.0	 1.09872	 100.0	 1	 693.0	 0.0	 0.0	 0.0	 0.0	 0.0	 0.0	 0.0	 0.0	 0.0	 0.0	 0.0	 0.0; % COW
	6235	 190.0	 -29.753	 95.0	 -95.0	 1.09872	 100.0	 1	 190.0	 0.0	 0.0	 0.0	 0.0	 0.0	 0.0	 0.0	 0.0	 0.0	 0.0	 0.0	 0.0; % NG
	6333	 3342.0	 716.531	 1671.0	 -1671.0	 1.07494	 100.0	 1	 3342.0	 0.0	 0.0	 0.0	 0.0	 0.0	 0.0	 0.0	 0.0	 0.0	 0.0	 0.0	 0.0; % COW
	6333	 248.0	 4.827	 124.0	 -124.0	 1.07494	 100.0	 1	 248.0	 0.0	 0.0	 0.0	 0.0	 0.0	 0.0	 0.0	 0.0	 0.0	 0.0	 0.0	 0.0; % NG
	6335	 386.678	 -59.518	 968.0	 -968.0	 0.98317	 100.0	 1	 1935.0	 0.0	 0.0	 0.0	 0.0	 0.0	 0.0	 0.0	 0.0	 0.0	 0.0	 0.0	 0.0; % NUC
	6335	 0.0	 -6.94	 330.0	 -330.0	 0.98317	 100.0	 1	 659.0	 0.0	 0.0	 0.0	 0.0	 0.0	 0.0	 0.0	 0.0	 0.0	 0.0	 0.0	 0.0; % COW
	6335	 0.0	 -10.503	 406.0	 -406.0	 0.98317	 100.0	 1	 812.0	 0.0	 0.0	 0.0	 0.0	 0.0	 0.0	 0.0	 0.0	 0.0	 0.0	 0.0	 0.0; % COW
	6433	 0.0	 -0.402	 283.0	 -283.0	 0.9879	 100.0	 1	 565.0	 0.0	 0.0	 0.0	 0.0	 0.0	 0.0	 0.0	 0.0	 0.0	 0.0	 0.0	 0.0; % COW
	6433	 0.0	 -0.017	 59.0	 -59.0	 0.9879	 100.0	 1	 118.0	 0.0	 0.0	 0.0	 0.0	 0.0	 0.0	 0.0	 0.0	 0.0	 0.0	 0.0	 0.0; % NG
	6433	 627.696	 -1.442	 536.0	 -536.0	 0.9879	 100.0	 1	 1072.0	 0.0	 0.0	 0.0	 0.0	 0.0	 0.0	 0.0	 0.0	 0.0	 0.0	 0.0	 0.0; % COW
	6433	 23.0	 -0.001	 12.0	 -12.0	 0.9879	 100.0	 1	 23.0	 0.0	 0.0	 0.0	 0.0	 0.0	 0.0	 0.0	 0.0	 0.0	 0.0	 0.0	 0.0; % COW
	6433	 0.0	 -0.003	 25.0	 -25.0	 0.9879	 100.0	 1	 50.0	 0.0	 0.0	 0.0	 0.0	 0.0	 0.0	 0.0	 0.0	 0.0	 0.0	 0.0	 0.0; % NG
	6533	 3847.0	 43.41	 1924.0	 -1924.0	 1.02258	 100.0	 1	 3847.0	 0.0	 0.0	 0.0	 0.0	 0.0	 0.0	 0.0	 0.0	 0.0	 0.0	 0.0	 0.0; % COW
	6533	 0.0	 0.004	 19.0	 -19.0	 1.02258	 100.0	 1	 37.0	 0.0	 0.0	 0.0	 0.0	 0.0	 0.0	 0.0	 0.0	 0.0	 0.0	 0.0	 0.0; % NG
	6533	 435.625	 9.085	 880.0	 -880.0	 1.02258	 100.0	 1	 1760.0	 0.0	 0.0	 0.0	 0.0	 0.0	 0.0	 0.0	 0.0	 0.0	 0.0	 0.0	 0.0; % COW
	6533	 0.0	 0.005	 20.0	 -20.0	 1.02258	 100.0	 1	 39.0	 0.0	 0.0	 0.0	 0.0	 0.0	 0.0	 0.0	 0.0	 0.0	 0.0	 0.0	 0.0; % NG
	6533	 0.0	 0.011	 31.0	 -31.0	 1.02258	 100.0	 1	 61.0	 0.0	 0.0	 0.0	 0.0	 0.0	 0.0	 0.0	 0.0	 0.0	 0.0	 0.0	 0.0; % NG
	7031	 2230.118	 -169.817	 1419.0	 -1419.0	 0.9	 100.0	 1	 2837.0	 0.0	 0.0	 0.0	 0.0	 0.0	 0.0	 0.0	 0.0	 0.0	 0.0	 0.0	 0.0; % COW
	7031	 4184.0	 -363.174	 2092.0	 -2092.0	 0.9	 100.0	 1	 4184.0	 0.0	 0.0	 0.0	 0.0	 0.0	 0.0	 0.0	 0.0	 0.0	 0.0	 0.0	 0.0; % COW
	7031	 -333.0	 -2.386	 167.0	 -167.0	 0.9	 100.0	 1	 333.0	 -333.0	 0.0	 0.0	 0.0	 0.0	 0.0	 0.0	 0.0	 0.0	 0.0	 0.0	 0.0; % NG
	7031	 597.0	 -7.644	 299.0	 -299.0	 0.9	 100.0	 1	 597.0	 0.0	 0.0	 0.0	 0.0	 0.0	 0.0	 0.0	 0.0	 0.0	 0.0	 0.0	 0.0; % COW
	7031	 0.0	 -84.945	 1000.0	 -1000.0	 0.9	 100.0	 1	 0.1	 0.0	 0.0	 0.0	 0.0	 0.0	 0.0	 0.0	 0.0	 0.0	 0.0	 0.0	 0.0; % PEL
	7032	 1652.0	 826.0	 826.0	 -826.0	 0.99998	 100.0	 1	 1652.0	 0.0	 0.0	 0.0	 0.0	 0.0	 0.0	 0.0	 0.0	 0.0	 0.0	 0.0	 0.0; % COW
	7032	 978.0	 489.0	 489.0	 -489.0	 0.99998	 100.0	 1	 978.0	 0.0	 0.0	 0.0	 0.0	 0.0	 0.0	 0.0	 0.0	 0.0	 0.0	 0.0	 0.0; % NUC
	7032	 691.0	 346.0	 346.0	 -346.0	 0.99998	 100.0	 1	 691.0	 0.0	 0.0	 0.0	 0.0	 0.0	 0.0	 0.0	 0.0	 0.0	 0.0	 0.0	 0.0; % COW
	7032	 200.0	 23.0	 23.0	 -23.0	 0.99998	 100.0	 1	 200.0	 -200.0	 0.0	 0.0	 0.0	 0.0	 0.0	 0.0	 0.0	 0.0	 0.0	 0.0	 0.0; % NG
	8033	 1337.608	 465.361	 786.0	 -786.0	 1.0808	 100.0	 1	 1572.0	 0.0	 0.0	 0.0	 0.0	 0.0	 0.0	 0.0	 0.0	 0.0	 0.0	 0.0	 0.0; % COW
	8034	 2560.0	 811.888	 1280.0	 -1280.0	 1.1	 100.0	 1	 2560.0	 0.0	 0.0	 0.0	 0.0	 0.0	 0.0	 0.0	 0.0	 0.0	 0.0	 0.0	 0.0; % NUC
	8034	 688.0	 91.215	 344.0	 -344.0	 1.1	 100.0	 1	 688.0	 0.0	 0.0	 0.0	 0.0	 0.0	 0.0	 0.0	 0.0	 0.0	 0.0	 0.0	 0.0; % COW
];

%% generator cost data
%	2	startup	shutdown	n	c(n-1)	...	c0
mpc.gencost = [
	2	 0.0	 0.0	 3	   0.000000	   0.209970	   0.000000; % NUC
	2	 0.0	 0.0	 3	   0.000000	   0.375570	   0.000000; % COW
	2	 0.0	 0.0	 3	   0.000000	   0.183835	   0.000000; % NUC
	2	 0.0	 0.0	 3	   0.000000	   0.936397	   0.000000; % COW
	2	 0.0	 0.0	 3	   0.000000	   0.889808	   0.000000; % COW
	2	 0.0	 0.0	 3	   0.000000	   0.686222	   0.000000; % COW
	2	 0.0	 0.0	 3	   0.000000	   1.004911	   0.000000; % COW
	2	 0.0	 0.0	 3	   0.000000	   0.963705	   0.000000; % NG
	2	 0.0	 0.0	 3	   0.000000	   0.750497	   0.000000; % COW
	2	 0.0	 0.0	 3	   0.000000	   0.678370	   0.000000; % COW
	2	 0.0	 0.0	 3	   0.000000	   0.565218	   0.000000; % COW
	2	 0.0	 0.0	 3	   0.000000	   0.423567	   0.000000; % COW
	2	 0.0	 0.0	 3	   0.000000	   0.559316	   0.000000; % COW
	2	 0.0	 0.0	 3	   0.000000	   0.827567	   0.000000; % COW
	2	 0.0	 0.0	 3	   0.000000	   6.662196	   0.000000; % PEL
	2	 0.0	 0.0	 3	   0.000000	   0.543780	   0.000000; % COW
	2	 0.0	 0.0	 3	   0.000000	   0.731150	   0.000000; % COW
	2	 0.0	 0.0	 3	   0.000000	   7.000041	   0.000000; % PEL
	2	 0.0	 0.0	 3	   0.000000	   0.436057	   0.000000; % COW
	2	 0.0	 0.0	 3	   0.000000	   0.729570	   0.000000; % COW
	2	 0.0	 0.0	 3	   0.000000	   0.462117	   0.000000; % COW
	2	 0.0	 0.0	 3	   0.000000	   0.777441	   0.000000; % COW
	2	 0.0	 0.0	 3	   0.000000	   1.242879	   0.000000; % NG
	2	 0.0	 0.0	 3	   0.000000	   1.268957	   0.000000; % NG
	2	 0.0	 0.0	 3	   0.000000	   1.035293	   0.000000; % COW
	2	 0.0	 0.0	 3	   0.000000	   0.957099	   0.000000; % COW
	2	 0.0	 0.0	 3	   0.000000	   0.503795	   0.000000; % COW
	2	 0.0	 0.0	 3	   0.000000	   0.728334	   0.000000; % COW
	2	 0.0	 0.0	 3	   0.000000	   0.675754	   0.000000; % COW
	2	 0.0	 0.0	 3	   0.000000	   1.163213	   0.000000; % COW
	2	 0.0	 0.0	 3	   0.000000	   0.239150	   0.000000; % NUC
	2	 0.0	 0.0	 3	   0.000000	   0.748065	   0.000000; % COW
	2	 0.0	 0.0	 3	   0.000000	   0.207809	   0.000000; % NUC
	2	 0.0	 0.0	 3	   0.000000	   0.947556	   0.000000; % COW
	2	 0.0	 0.0	 3	   0.000000	   0.231892	   0.000000; % NUC
	2	 0.0	 0.0	 3	   0.000000	   0.000000	   0.000000; % SYNC
	2	 0.0	 0.0	 3	   0.000000	   0.627595	   0.000000; % COW
	2	 0.0	 0.0	 3	   0.000000	   0.447904	   0.000000; % COW
	2	 0.0	 0.0	 3	   0.000000	   1.230799	   0.000000; % NG
	2	 0.0	 0.0	 3	   0.000000	   0.687444	   0.000000; % COW
	2	 0.0	 0.0	 3	   0.000000	   0.757850	   0.000000; % NG
	2	 0.0	 0.0	 3	   0.000000	   0.707860	   0.000000; % COW
	2	 0.0	 0.0	 3	   0.000000	   1.190824	   0.000000; % NG
	2	 0.0	 0.0	 3	   0.000000	   1.172317	   0.000000; % NG
	2	 0.0	 0.0	 3	   0.000000	   0.669770	   0.000000; % COW
	2	 0.0	 0.0	 3	   0.000000	   0.903146	   0.000000; % NG
	2	 0.0	 0.0	 3	   0.000000	   1.191955	   0.000000; % COW
	2	 0.0	 0.0	 3	   0.000000	   0.966413	   0.000000; % NG
	2	 0.0	 0.0	 3	   0.000000	   0.864589	   0.000000; % COW
	2	 0.0	 0.0	 3	   0.000000	   0.640717	   0.000000; % COW
	2	 0.0	 0.0	 3	   0.000000	   0.588814	   0.000000; % COW
	2	 0.0	 0.0	 3	   0.000000	   0.358519	   0.000000; % COW
	2	 0.0	 0.0	 3	   0.000000	   0.785681	   0.000000; % COW
	2	 0.0	 0.0	 3	   0.000000	   0.675694	   0.000000; % COW
	2	 0.0	 0.0	 3	   0.000000	   0.667733	   0.000000; % COW
	2	 0.0	 0.0	 3	   0.000000	   1.267026	   0.000000; % COW
	2	 0.0	 0.0	 3	   0.000000	   0.932616	   0.000000; % COW
	2	 0.0	 0.0	 3	   0.000000	   6.768375	   0.000000; % PEL
	2	 0.0	 0.0	 3	   0.000000	   1.067864	   0.000000; % NG
	2	 0.0	 0.0	 3	   0.000000	   0.639454	   0.000000; % COW
	2	 0.0	 0.0	 3	   0.000000	   0.968821	   0.000000; % NG
	2	 0.0	 0.0	 3	   0.000000	   0.428059	   0.000000; % COW
	2	 0.0	 0.0	 3	   0.000000	   0.696260	   0.000000; % COW
	2	 0.0	 0.0	 3	   0.000000	   0.000000	   0.000000; % SYNC
	2	 0.0	 0.0	 3	   0.000000	   0.793287	   0.000000; % COW
	2	 0.0	 0.0	 3	   0.000000	   0.641557	   0.000000; % NG
	2	 0.0	 0.0	 3	   0.000000	   1.129160	   0.000000; % COW
	2	 0.0	 0.0	 3	   0.000000	   7.217373	   0.000000; % PEL
	2	 0.0	 0.0	 3	   0.000000	   0.140814	   0.000000; % COW
	2	 0.0	 0.0	 3	   0.000000	   0.853484	   0.000000; % NG
	2	 0.0	 0.0	 3	   0.000000	   0.188334	   0.000000; % NUC
	2	 0.0	 0.0	 3	   0.000000	   0.221239	   0.000000; % NUC
	2	 0.0	 0.0	 3	   0.000000	   0.873456	   0.000000; % NG
	2	 0.0	 0.0	 3	   0.000000	   0.220814	   0.000000; % NUC
	2	 0.0	 0.0	 3	   0.000000	   0.889642	   0.000000; % COW
	2	 0.0	 0.0	 3	   0.000000	   0.551892	   0.000000; % COW
	2	 0.0	 0.0	 3	   0.000000	   0.838236	   0.000000; % NG
	2	 0.0	 0.0	 3	   0.000000	   1.032903	   0.000000; % COW
	2	 0.0	 0.0	 3	   0.000000	   0.716133	   0.000000; % COW
	2	 0.0	 0.0	 3	   0.000000	   1.229515	   0.000000; % NG
	2	 0.0	 0.0	 3	   0.000000	   1.106857	   0.000000; % NG
	2	 0.0	 0.0	 3	   0.000000	   1.190896	   0.000000; % NG
	2	 0.0	 0.0	 3	   0.000000	   0.777228	   0.000000; % COW
	2	 0.0	 0.0	 3	   0.000000	   0.227407	   0.000000; % NUC
	2	 0.0	 0.0	 3	   0.000000	   1.104819	   0.000000; % COW
	2	 0.0	 0.0	 3	   0.000000	   0.345198	   0.000000; % COW
	2	 0.0	 0.0	 3	   0.000000	   0.494760	   0.000000; % COW
	2	 0.0	 0.0	 3	   0.000000	   0.469620	   0.000000; % COW
	2	 0.0	 0.0	 3	   0.000000	   1.196920	   0.000000; % COW
	2	 0.0	 0.0	 3	   0.000000	   0.743232	   0.000000; % COW
	2	 0.0	 0.0	 3	   0.000000	   0.776729	   0.000000; % COW
	2	 0.0	 0.0	 3	   0.000000	   1.107762	   0.000000; % NG
	2	 0.0	 0.0	 3	   0.000000	   0.698122	   0.000000; % COW
	2	 0.0	 0.0	 3	   0.000000	   0.765141	   0.000000; % COW
	2	 0.0	 0.0	 3	   0.000000	   0.450777	   0.000000; % COW
	2	 0.0	 0.0	 3	   0.000000	   1.122354	   0.000000; % NG
	2	 0.0	 0.0	 3	   0.000000	   0.221033	   0.000000; % NUC
	2	 0.0	 0.0	 3	   0.000000	   0.899782	   0.000000; % COW
	2	 0.0	 0.0	 3	   0.000000	   0.964246	   0.000000; % NG
	2	 0.0	 0.0	 3	   0.000000	   7.349208	   0.000000; % PEL
	2	 0.0	 0.0	 3	   0.000000	   0.383708	   0.000000; % COW
	2	 0.0	 0.0	 3	   0.000000	   0.881693	   0.000000; % COW
	2	 0.0	 0.0	 3	   0.000000	   0.185015	   0.000000; % NUC
	2	 0.0	 0.0	 3	   0.000000	   0.984745	   0.000000; % COW
	2	 0.0	 0.0	 3	   0.000000	   1.281839	   0.000000; % NG
	2	 0.0	 0.0	 3	   0.000000	   1.261762	   0.000000; % NG
	2	 0.0	 0.0	 3	   0.000000	   1.142493	   0.000000; % NG
	2	 0.0	 0.0	 3	   0.000000	   1.463962	   0.000000; % NG
	2	 0.0	 0.0	 3	   0.000000	   0.912735	   0.000000; % COW
	2	 0.0	 0.0	 3	   0.000000	   1.145433	   0.000000; % NG
	2	 0.0	 0.0	 3	   0.000000	   0.746290	   0.000000; % NG
	2	 0.0	 0.0	 3	   0.000000	   0.415932	   0.000000; % COW
	2	 0.0	 0.0	 3	   0.000000	   0.654257	   0.000000; % COW
	2	 0.0	 0.0	 3	   0.000000	   0.981654	   0.000000; % NG
	2	 0.0	 0.0	 3	   0.000000	   0.856972	   0.000000; % COW
	2	 0.0	 0.0	 3	   0.000000	   0.841239	   0.000000; % NG
	2	 0.0	 0.0	 3	   0.000000	   0.589026	   0.000000; % COW
	2	 0.0	 0.0	 3	   0.000000	   0.735310	   0.000000; % NG
	2	 0.0	 0.0	 3	   0.000000	   0.214111	   0.000000; % NUC
	2	 0.0	 0.0	 3	   0.000000	   0.987589	   0.000000; % COW
	2	 0.0	 0.0	 3	   0.000000	   0.334491	   0.000000; % COW
	2	 0.0	 0.0	 3	   0.000000	   0.912147	   0.000000; % COW
	2	 0.0	 0.0	 3	   0.000000	   1.304013	   0.000000; % NG
	2	 0.0	 0.0	 3	   0.000000	   0.887392	   0.000000; % COW
	2	 0.0	 0.0	 3	   0.000000	   0.743719	   0.000000; % COW
	2	 0.0	 0.0	 3	   0.000000	   1.125419	   0.000000; % NG
	2	 0.0	 0.0	 3	   0.000000	   0.640447	   0.000000; % COW
	2	 0.0	 0.0	 3	   0.000000	   0.879158	   0.000000; % NG
	2	 0.0	 0.0	 3	   0.000000	   0.750579	   0.000000; % COW
	2	 0.0	 0.0	 3	   0.000000	   0.923304	   0.000000; % NG
	2	 0.0	 0.0	 3	   0.000000	   0.773450	   0.000000; % NG
	2	 0.0	 0.0	 3	   0.000000	   1.076269	   0.000000; % COW
	2	 0.0	 0.0	 3	   0.000000	   0.506894	   0.000000; % COW
	2	 0.0	 0.0	 3	   0.000000	   1.170776	   0.000000; % NG
	2	 0.0	 0.0	 3	   0.000000	   0.816417	   0.000000; % COW
	2	 0.0	 0.0	 3	   0.000000	   7.080976	   0.000000; % PEL
	2	 0.0	 0.0	 3	   0.000000	   0.160588	   0.000000; % COW
	2	 0.0	 0.0	 3	   0.000000	   0.213726	   0.000000; % NUC
	2	 0.0	 0.0	 3	   0.000000	   0.610902	   0.000000; % COW
	2	 0.0	 0.0	 3	   0.000000	   0.836911	   0.000000; % NG
	2	 0.0	 0.0	 3	   0.000000	   0.688068	   0.000000; % COW
	2	 0.0	 0.0	 3	   0.000000	   0.215438	   0.000000; % NUC
	2	 0.0	 0.0	 3	   0.000000	   0.657978	   0.000000; % COW
];

%% branch data
%	fbus	tbus	r	x	b	rateA	rateB	rateC	ratio	angle	status	angmin	angmax
mpc.branch = [
	1001	 1201	 0.00177	 0.03169	 3.3446	 996	 996	 996	 0.0	 0.0	 1	 -30.0	 30.0;
	1001	 1202	 0.0108	 0.0965	 0.3296	 326	 326	 326	 0.0	 0.0	 1	 -30.0	 30.0;
	1002	 1004	 0.0005	 0.0053	 0.0882	 5934	 5934	 5934	 0.0	 0.0	 1	 -30.0	 30.0;
	1002	 1102	 0.00179	 0.01988	 2.576	 1583	 1583	 1583	 0.0	 0.0	 1	 -30.0	 30.0;
	1002	 1102	 0.00179	 0.01988	 2.576	 1583	 1583	 1583	 0.0	 0.0	 1	 -30.0	 30.0;
	1002	 6506	 0.0048	 0.0436	 0.7078	 721	 721	 721	 0.0	 0.0	 1	 -30.0	 30.0;
	1004	 7001	 0.03903	 0.27403	 2.0	 115	 115	 115	 0.0	 0.0	 1	 -30.0	 30.0;
	1004	 7002	 0.00977	 0.11	 2.0	 287	 287	 287	 0.0	 0.0	 1	 -30.0	 30.0;
	1101	 1401	 0.0028	 0.0211	 1.0194	 1485	 1485	 1485	 0.0	 0.0	 1	 -30.0	 30.0;
	1101	 1401	 0.0028	 0.0211	 1.0194	 1485	 1485	 1485	 0.0	 0.0	 1	 -30.0	 30.0;
	1201	 1202	 0.00077	 0.00536	 1.39842	 5834	 5834	 5834	 0.0	 0.0	 1	 -30.0	 30.0;
	1201	 1402	 0.00179	 0.02592	 3.3922	 1216	 1216	 1216	 0.0	 0.0	 1	 -30.0	 30.0;
	1201	 2901	 0.00207	 0.01369	 3.9516	 2282	 2282	 2282	 0.0	 0.0	 1	 -30.0	 30.0;
	1202	 1302	 0.0028	 0.0211	 1.0194	 1485	 1485	 1485	 0.0	 0.0	 1	 -30.0	 30.0;
	1202	 1402	 0.00241	 0.03489	 4.8656	 904	 904	 904	 0.0	 0.0	 1	 -30.0	 30.0;
	1301	 1302	 0.0028	 0.0211	 1.0194	 1485	 1485	 1485	 0.0	 0.0	 1	 -30.0	 30.0;
	1301	 1402	 0.0028	 0.0211	 1.0194	 1485	 1485	 1485	 0.0	 0.0	 1	 -30.0	 30.0;
	1301	 1402	 0.0062	 0.0673	 1.1156	 468	 468	 468	 0.0	 0.0	 1	 -30.0	 30.0;
	1301	 2603	 0.00179	 0.02524	 0.53546	 1249	 1249	 1249	 0.0	 0.0	 1	 -30.0	 30.0;
	1301	 2901	 0.0108	 0.0965	 0.3296	 326	 326	 326	 0.0	 0.0	 1	 -30.0	 30.0;
	1303	 6507	 0.00811	 0.1369	 1.1156	 231	 231	 231	 0.0	 0.0	 1	 -30.0	 30.0;
	1401	 1402	 0.0004	 0.0096	 0.9038	 3288	 3288	 3288	 0.0	 0.0	 1	 -30.0	 30.0;
	1401	 1402	 0.0004	 0.0096	 0.9038	 3288	 3288	 3288	 0.0	 0.0	 1	 -30.0	 30.0;
	1401	 2301	 0.00259	 0.02967	 2.153	 1061	 1061	 1061	 0.0	 0.0	 1	 -30.0	 30.0;
	1401	 2400	 0.00259	 0.02967	 2.153	 1061	 1061	 1061	 0.0	 0.0	 1	 -30.0	 30.0;
	1403	 2100	 0.00845	 0.07034	 0.15954	 446	 446	 446	 0.0	 0.0	 1	 -30.0	 30.0;
	2000	 2202	 0.00138	 0.05399	 0.15252	 585	 585	 585	 0.0	 0.0	 1	 -30.0	 30.0;
	2000	 2302	 0.00138	 0.05399	 0.15252	 585	 585	 585	 0.0	 0.0	 1	 -30.0	 30.0;
	2100	 2302	 0.00845	 0.07034	 0.15954	 446	 446	 446	 0.0	 0.0	 1	 -30.0	 30.0;
	2201	 2301	 0.00179	 0.02524	 2.153	 1249	 1249	 1249	 0.0	 0.0	 1	 -30.0	 30.0;
	2202	 2203	 0.00312	 0.02886	 0.15252	 1089	 986.0	 986.0	 0.0	 0.0	 1	 -30.0	 30.0;
	2202	 2203	 0.00312	 0.02886	 0.15252	 1089	 986.0	 986.0	 0.0	 0.0	 1	 -30.0	 30.0;
	2202	 2503	 0.00312	 0.02886	 0.15252	 1089	 986.0	 986.0	 0.0	 0.0	 1	 -30.0	 30.0;
	2203	 2503	 0.00312	 0.02886	 0.15252	 1089	 986.0	 986.0	 0.0	 0.0	 1	 -30.0	 30.0;
	2203	 2503	 0.00312	 0.02886	 0.15252	 1089	 986.0	 986.0	 0.0	 0.0	 1	 -30.0	 30.0;
	2400	 2403	 0.00042	 0.00905	 0.66794	 3487	 3487	 3487	 0.0	 0.0	 1	 -30.0	 30.0;
	2401	 2402	 0.00028	 0.00753	 0.51736	 4192	 4192	 3600.0	 0.0	 0.0	 1	 -30.0	 30.0;
	2401	 2402	 0.00035	 0.0075	 0.5536	 4208	 4208	 3600.0	 0.0	 0.0	 1	 -30.0	 30.0;
	2401	 2404	 0.00044	 0.01125	 0.8292	 2806	 2806	 2806	 0.0	 0.0	 1	 -30.0	 30.0;
	2401	 2404	 0.00044	 0.01125	 0.8292	 2806	 2806	 2806	 0.0	 0.0	 1	 -30.0	 30.0;
	2401	 2501	 0.0006	 0.0128	 0.9462	 2466	 2466	 2466	 0.0	 0.0	 1	 -30.0	 30.0;
	2401	 2603	 0.0002	 0.0041	 0.2962	 7696	 7696	 7696	 0.0	 0.0	 1	 -30.0	 30.0;
	2401	 2901	 0.00193	 0.02779	 4.6712	 1134	 1134	 1134	 0.0	 0.0	 1	 -30.0	 30.0;
	2401	 2902	 0.0019	 0.031	 4.1402	 1018	 1018	 1018	 0.0	 0.0	 1	 -30.0	 30.0;
	2402	 2501	 0.00021	 0.00457	 0.32336	 6905	 6905	 3600.0	 0.0	 0.0	 1	 -30.0	 30.0;
	2403	 2501	 0.0004	 0.0093	 0.6856	 3394	 3394	 3394	 0.0	 0.0	 1	 -30.0	 30.0;
	2404	 3893	 0.0	 -0.00935	 0.0	 3379	 3379	 2134.0	 0.0	 0.0	 1	 -30.0	 30.0;
	2404	 3895	 0.0	 -0.00935	 0.0	 3379	 3379	 2134.0	 0.0	 0.0	 1	 -30.0	 30.0;
	2404	 3897	 0.0	 -0.0084	 0.0	 3761	 3761	 2100.0	 0.0	 0.0	 1	 -30.0	 30.0;
	2405	 2406	 0.0014	 0.0264	 0.102	 1195	 1195	 1195	 0.0	 0.0	 1	 -30.0	 30.0;
	2405	 2410	 0.00065	 0.01187	 0.04672	 2658	 2658	 2658	 0.0	 0.0	 1	 -30.0	 30.0;
	2405	 2410	 0.00065	 0.01187	 0.04672	 2658	 2658	 2658	 0.0	 0.0	 1	 -30.0	 30.0;
	2406	 2408	 0.0019	 0.0258	 0.0984	 1222	 1222	 1222	 0.0	 0.0	 1	 -30.0	 30.0;
	2406	 2410	 0.00845	 0.07034	 0.15954	 446	 446	 446	 0.0	 0.0	 1	 -30.0	 30.0;
	2407	 2408	 0.0011	 0.0127	 0.048	 2478	 2478	 2320.0	 0.0	 0.0	 1	 -30.0	 30.0;
	2408	 2409	 0.00138	 0.05399	 0.15252	 585	 585	 585	 0.0	 0.0	 1	 -30.0	 30.0;
	2408	 2409	 0.00138	 0.05399	 0.15252	 585	 585	 585	 0.0	 0.0	 1	 -30.0	 30.0;
	2408	 2411	 0.0032	 0.0395	 0.144	 798	 798	 798	 0.0	 0.0	 1	 -30.0	 30.0;
	2408	 2502	 0.00312	 0.02886	 0.15252	 1089	 986.0	 986.0	 0.0	 0.0	 1	 -30.0	 30.0;
	2409	 2502	 0.00312	 0.02886	 0.15252	 1089	 986.0	 986.0	 0.0	 0.0	 1	 -30.0	 30.0;
	2409	 2503	 0.00312	 0.02886	 0.15252	 1089	 986.0	 986.0	 0.0	 0.0	 1	 -30.0	 30.0;
	2410	 2411	 0.00285	 0.03649	 0.12656	 864	 864	 864	 0.0	 0.0	 1	 -30.0	 30.0;
	2410	 2411	 0.00138	 0.03399	 0.11252	 929	 929	 929	 0.0	 0.0	 1	 -30.0	 30.0;
	2502	 2503	 0.00312	 0.02886	 0.15252	 1089	 986.0	 986.0	 0.0	 0.0	 1	 -30.0	 30.0;
	2502	 2503	 0.00312	 0.02886	 0.15252	 1089	 986.0	 986.0	 0.0	 0.0	 1	 -30.0	 30.0;
	2901	 2902	 0.00056	 0.01415	 1.0429	 2231	 2231	 2231	 0.0	 0.0	 1	 -30.0	 30.0;
	2600	 2602	 0.00082	 0.01668	 1.18802	 1892	 1892	 1892	 0.0	 0.0	 1	 -30.0	 30.0;
	2600	 2603	 0.0	 0.00159	 0.12002	 19867	 19867	 19867	 0.0	 0.0	 1	 -30.0	 30.0;
	2600	 2603	 0.0	 0.00159	 0.12002	 19867	 19867	 19867	 0.0	 0.0	 1	 -30.0	 30.0;
	2600	 2601	 0.00074	 0.01861	 1.40264	 1696	 1696	 1696	 0.0	 0.0	 1	 -30.0	 30.0;
	2601	 2603	 0.00083	 0.01884	 1.66668	 1675	 1675	 1675	 0.0	 0.0	 1	 -30.0	 30.0;
	2603	 2901	 0.00179	 0.02524	 0.53546	 1249	 1249	 1249	 0.0	 0.0	 1	 -30.0	 30.0;
	2604	 6404	 0.0108	 0.0965	 0.3296	 326	 326	 326	 0.0	 0.0	 1	 -30.0	 30.0;
	2604	 6504	 0.0018	 0.0245	 0.4392	 1286	 1286	 1286	 0.0	 0.0	 1	 -30.0	 30.0;
	2604	 6504	 0.0018	 0.0245	 0.4392	 1286	 1286	 1286	 0.0	 0.0	 1	 -30.0	 30.0;
	2605	 2607	 0.0107	 0.07905	 0.3667	 396	 396	 396	 0.0	 0.0	 1	 -30.0	 30.0;
	2606	 2607	 0.0107	 0.07905	 0.3667	 396	 396	 396	 0.0	 0.0	 1	 -30.0	 30.0;
	2608	 2611	 0.00221	 0.03346	 0.07338	 942	 942	 942	 0.0	 0.0	 1	 -30.0	 30.0;
	2608	 2612	 0.0029	 0.038	 0.0824	 829	 829	 829	 0.0	 0.0	 1	 -30.0	 30.0;
	2608	 2618	 0.00309	 0.04677	 0.1008	 674	 674	 674	 0.0	 0.0	 1	 -30.0	 30.0;
	2608	 2619	 0.00226	 0.03422	 0.07506	 922	 922	 922	 0.0	 0.0	 1	 -30.0	 30.0;
	2609	 2615	 0.00047	 0.00723	 0.01624	 4360	 4360	 4360	 0.0	 0.0	 1	 -30.0	 30.0;
	2609	 2617	 0.00035	 0.00536	 0.01204	 5881	 5881	 5881	 0.0	 0.0	 1	 -30.0	 30.0;
	2610	 2613	 0.0022	 0.03422	 0.07716	 922	 922	 922	 0.0	 0.0	 1	 -30.0	 30.0;
	2610	 2613	 0.00238	 0.03669	 0.08284	 860	 860	 860	 0.0	 0.0	 1	 -30.0	 30.0;
	2610	 2616	 0.00201	 0.03074	 0.06886	 1026	 1026	 1026	 0.0	 0.0	 1	 -30.0	 30.0;
	2610	 2617	 0.00281	 0.04296	 0.09648	 734	 734	 734	 0.0	 0.0	 1	 -30.0	 30.0;
	2611	 2612	 0.00029	 0.00434	 0.0095	 7262	 7262	 7262	 0.0	 0.0	 1	 -30.0	 30.0;
	2612	 2615	 0.00229	 0.01583	 0.0306	 1975	 1975	 1975	 0.0	 0.0	 1	 -30.0	 30.0;
	2612	 2615	 0.00229	 0.01583	 0.0306	 1975	 1975	 1975	 0.0	 0.0	 1	 -30.0	 30.0;
	2612	 2618	 0.00141	 0.00967	 0.0194	 3233	 3233	 3233	 0.0	 0.0	 1	 -30.0	 30.0;
	2612	 2618	 0.00141	 0.00967	 0.0194	 3233	 3233	 3233	 0.0	 0.0	 1	 -30.0	 30.0;
	2612	 2618	 0.00161	 0.00971	 0.01928	 3210	 3210	 3210	 0.0	 0.0	 1	 -30.0	 30.0;
	2612	 2618	 0.00161	 0.00971	 0.01928	 3210	 3210	 3210	 0.0	 0.0	 1	 -30.0	 30.0;
	2612	 2619	 0.00027	 0.00393	 0.00918	 8019	 8019	 8019	 0.0	 0.0	 1	 -30.0	 30.0;
	2612	 2619	 0.00027	 0.00393	 0.00918	 8019	 8019	 8019	 0.0	 0.0	 1	 -30.0	 30.0;
	2612	 2619	 0.00027	 0.00393	 0.00918	 8019	 8019	 8019	 0.0	 0.0	 1	 -30.0	 30.0;
	2612	 2620	 0.00138	 0.01116	 0.0247	 2810	 2810	 2810	 0.0	 0.0	 1	 -30.0	 30.0;
	2612	 2620	 0.00138	 0.01116	 0.0247	 2810	 2810	 2810	 0.0	 0.0	 1	 -30.0	 30.0;
	2613	 2616	 0.00037	 0.00366	 0.0083	 8587	 8587	 8587	 0.0	 0.0	 1	 -30.0	 30.0;
	2613	 2617	 0.00055	 0.00586	 0.01246	 5367	 5367	 5367	 0.0	 0.0	 1	 -30.0	 30.0;
	2614	 2616	 0.00073	 0.01025	 0.02558	 3074	 3074	 3074	 0.0	 0.0	 1	 -30.0	 30.0;
	2614	 2616	 0.00073	 0.01025	 0.02558	 3074	 3074	 3074	 0.0	 0.0	 1	 -30.0	 30.0;
	2615	 2617	 0.00119	 0.01244	 0.02798	 2528	 2528	 2528	 0.0	 0.0	 1	 -30.0	 30.0;
	2615	 2617	 0.00119	 0.01244	 0.02798	 2528	 2528	 2528	 0.0	 0.0	 1	 -30.0	 30.0;
	2615	 2620	 0.00128	 0.00979	 0.0212	 3200	 3200	 3200	 0.0	 0.0	 1	 -30.0	 30.0;
	2616	 2617	 0.0011	 0.01189	 0.02514	 2646	 2646	 2646	 0.0	 0.0	 1	 -30.0	 30.0;
	3101	 3102	 0.0011	 0.0127	 0.048	 2478	 1120.0	 1120.0	 0.0	 0.0	 1	 -30.0	 30.0;
	3101	 3102	 0.0011	 0.0127	 0.048	 2478	 1120.0	 1120.0	 0.0	 0.0	 1	 -30.0	 30.0;
	3102	 3103	 0.0011	 0.0127	 0.048	 2478	 1120.0	 1120.0	 0.0	 0.0	 1	 -30.0	 30.0;
	3102	 3103	 0.0011	 0.0127	 0.048	 2478	 1120.0	 1120.0	 0.0	 0.0	 1	 -30.0	 30.0;
	3102	 3103	 0.0011	 0.0127	 0.048	 2478	 1120.0	 1120.0	 0.0	 0.0	 1	 -30.0	 30.0;
	3102	 3302	 0.0011	 0.0127	 0.048	 2478	 1120.0	 1120.0	 0.0	 0.0	 1	 -30.0	 30.0;
	3103	 3204	 0.0011	 0.0127	 0.048	 2478	 1120.0	 1120.0	 0.0	 0.0	 1	 -30.0	 30.0;
	3103	 3204	 0.0011	 0.0127	 0.048	 2478	 1120.0	 1120.0	 0.0	 0.0	 1	 -30.0	 30.0;
	3103	 3305	 0.0011	 0.0127	 0.048	 2478	 1120.0	 1120.0	 0.0	 0.0	 1	 -30.0	 30.0;
	3103	 3305	 0.0011	 0.0127	 0.048	 2478	 1120.0	 1120.0	 0.0	 0.0	 1	 -30.0	 30.0;
	3104	 3105	 0.00312	 0.02886	 0.15252	 1089	 986.0	 986.0	 0.0	 0.0	 1	 -30.0	 30.0;
	3201	 3202	 0.0011	 0.0127	 0.048	 2478	 1120.0	 1120.0	 0.0	 0.0	 1	 -30.0	 30.0;
	3201	 3202	 0.0011	 0.0127	 0.048	 2478	 1120.0	 1120.0	 0.0	 0.0	 1	 -30.0	 30.0;
	3201	 3203	 0.0011	 0.0127	 0.048	 2478	 1120.0	 1120.0	 0.0	 0.0	 1	 -30.0	 30.0;
	3201	 3203	 0.0011	 0.0127	 0.048	 2478	 1120.0	 1120.0	 0.0	 0.0	 1	 -30.0	 30.0;
	3201	 3923	 0.00312	 0.02886	 0.15252	 1089	 986.0	 986.0	 0.0	 0.0	 1	 -30.0	 30.0;
	3201	 3923	 0.00312	 0.02886	 0.15252	 1089	 986.0	 986.0	 0.0	 0.0	 1	 -30.0	 30.0;
	3201	 3924	 0.0011	 0.0127	 0.048	 2478	 1120.0	 1120.0	 0.0	 0.0	 1	 -30.0	 30.0;
	3201	 3924	 0.0011	 0.0127	 0.048	 2478	 1120.0	 1120.0	 0.0	 0.0	 1	 -30.0	 30.0;
	3202	 3203	 0.0011	 0.0127	 0.048	 2478	 1120.0	 1120.0	 0.0	 0.0	 1	 -30.0	 30.0;
	3202	 3203	 0.00312	 0.02886	 0.15252	 1089	 986.0	 986.0	 0.0	 0.0	 1	 -30.0	 30.0;
	3202	 3204	 0.0011	 0.0127	 0.048	 2478	 1120.0	 1120.0	 0.0	 0.0	 1	 -30.0	 30.0;
	3202	 3205	 0.0011	 0.0127	 0.048	 2478	 1120.0	 1120.0	 0.0	 0.0	 1	 -30.0	 30.0;
	3202	 3924	 0.00312	 0.02886	 0.15252	 1089	 986.0	 986.0	 0.0	 0.0	 1	 -30.0	 30.0;
	3202	 3924	 0.00312	 0.02886	 0.15252	 1089	 986.0	 986.0	 0.0	 0.0	 1	 -30.0	 30.0;
	3203	 3204	 0.0011	 0.0127	 0.048	 2478	 1120.0	 1120.0	 0.0	 0.0	 1	 -30.0	 30.0;
	3203	 3303	 0.0011	 0.0127	 0.048	 2478	 1120.0	 1120.0	 0.0	 0.0	 1	 -30.0	 30.0;
	3203	 3303	 0.00312	 0.02886	 0.15252	 1089	 986.0	 986.0	 0.0	 0.0	 1	 -30.0	 30.0;
	3203	 3305	 0.0011	 0.0127	 0.048	 2478	 1120.0	 1120.0	 0.0	 0.0	 1	 -30.0	 30.0;
	3203	 3923	 0.00312	 0.02886	 0.15252	 1089	 986.0	 986.0	 0.0	 0.0	 1	 -30.0	 30.0;
	3203	 3923	 0.00312	 0.02886	 0.15252	 1089	 986.0	 986.0	 0.0	 0.0	 1	 -30.0	 30.0;
	3204	 3205	 0.0011	 0.0127	 0.048	 2478	 1120.0	 1120.0	 0.0	 0.0	 1	 -30.0	 30.0;
	3204	 3205	 0.0011	 0.0127	 0.048	 2478	 1120.0	 1120.0	 0.0	 0.0	 1	 -30.0	 30.0;
	3204	 3923	 0.00312	 0.02886	 0.15252	 1089	 986.0	 986.0	 0.0	 0.0	 1	 -30.0	 30.0;
	3204	 3923	 0.00312	 0.02886	 0.15252	 1089	 986.0	 986.0	 0.0	 0.0	 1	 -30.0	 30.0;
	3205	 3914	 0.00312	 0.02886	 0.15252	 1089	 986.0	 986.0	 0.0	 0.0	 1	 -30.0	 30.0;
	3205	 3915	 0.00312	 0.02886	 0.15252	 1089	 986.0	 986.0	 0.0	 0.0	 1	 -30.0	 30.0;
	3301	 3902	 0.00053	 0.01297	 0.0	 2434	 2434	 2434	 0.0	 0.0	 1	 -30.0	 30.0;
	3301	 3903	 1e-05	 -0.00755	 0.0	 4184	 4184	 4184	 0.0	 0.0	 1	 -30.0	 30.0;
	3302	 3304	 0.0011	 0.0127	 0.048	 2478	 1120.0	 1120.0	 0.0	 0.0	 1	 -30.0	 30.0;
	3302	 3304	 0.0011	 0.0127	 0.048	 2478	 1120.0	 1120.0	 0.0	 0.0	 1	 -30.0	 30.0;
	3303	 3304	 0.0011	 0.0127	 0.048	 2478	 1120.0	 1120.0	 0.0	 0.0	 1	 -30.0	 30.0;
	3303	 3304	 0.0011	 0.0127	 0.048	 2478	 1120.0	 1120.0	 0.0	 0.0	 1	 -30.0	 30.0;
...